4RFM - preprocessed
                    3D
 Structure written by MMmdl.
  0  0  0     0  0            999 V3000
M  V30 BEGIN CTAB
M  V30 COUNTS 3977 4025 0 0 0
M  V30 BEGIN ATOM
M  V30 1 N  -13.8930 41.9350 5.7700 0
M  V30 2 C  -13.7030 40.6260 6.5090 0 CFG=2
M  V30 3 C  -13.8930 39.3380 5.7040 0
M  V30 4 O  -13.2610 38.3270 6.0050 0
M  V30 5 C  -14.6520 40.5450 7.6900 0
M  V30 6 O  -15.0610 39.1910 7.9570 0
M  V30 7 H  -13.7420 42.7050 6.4050 0
M  V30 8 H  -13.2320 41.9910 5.0090 0
M  V30 9 H  -12.6880 40.6180 6.9040 0
M  V30 10 H  -15.5310 41.1570 7.4920 0
M  V30 11 H  -14.1650 40.9580 8.5740 0
M  V30 12 H  -15.6780 39.2110 8.6840 0
M  V30 13 N  -14.8120 39.3590 4.7440 0
M  V30 14 C  -15.3360 38.1500 4.0900 0 CFG=2
M  V30 15 C  -14.8290 38.1290 2.6550 0
M  V30 16 O  -15.0080 39.0880 1.9470 0
M  V30 17 C  -16.8930 38.1150 4.1410 0
M  V30 18 C  -17.5080 37.0770 3.2140 0
M  V30 19 C  -17.3540 37.8570 5.5400 0
M  V30 20 H  -15.1900 40.2400 4.4260 0
M  V30 21 H  -14.9490 37.2740 4.6100 0
M  V30 22 H  -17.2620 39.0960 3.8400 0
M  V30 23 H  -18.5940 37.1090 3.3010 0
M  V30 24 H  -17.2200 37.2920 2.1850 0
M  V30 25 H  -17.1510 36.0850 3.4910 0
M  V30 26 H  -18.4430 37.8340 5.5660 0
M  V30 27 H  -16.9630 36.8980 5.8800 0
M  V30 28 H  -16.9910 38.6490 6.1950 0
M  V30 29 N  -14.1530 37.0570 2.2660 0
M  V30 30 C  -13.5940 36.9380 0.9230 0 CFG=2
M  V30 31 C  -14.5160 36.0570 0.0800 0
M  V30 32 O  -14.9300 34.9590 0.4900 0
M  V30 33 C  -12.1260 36.4080 0.9380 0 CFG=2
M  V30 34 C  -11.2100 37.4200 1.6290 0
M  V30 35 C  -11.6040 36.2000 -0.4800 0
M  V30 36 C  -9.9240 36.8670 2.1680 0
M  V30 37 H  -14.0120 36.2890 2.9060 0
M  V30 38 H  -13.5840 37.9320 0.4770 0
M  V30 39 H  -12.0890 35.4620 1.4780 0
M  V30 40 H  -11.7580 37.9100 2.4340 0
M  V30 41 H  -10.9900 38.2350 0.9390 0
M  V30 42 H  -10.5790 35.8310 -0.4400 0
M  V30 43 H  -12.2320 35.4730 -0.9960 0
M  V30 44 H  -11.6280 37.1470 -1.0190 0
M  V30 45 H  -9.3520 37.6670 2.6370 0
M  V30 46 H  -10.1420 36.0960 2.9080 0
M  V30 47 H  -9.3440 36.4340 1.3530 0
M  V30 48 N  -14.8800 36.5760 -1.0860 0
M  V30 49 C  -15.6450 35.8320 -2.0820 0 CFG=2
M  V30 50 C  -14.7150 34.6840 -2.5880 0
M  V30 51 O  -13.5220 34.9050 -2.8650 0
M  V30 52 C  -16.1150 36.8250 -3.1490 0
M  V30 53 C  -16.3880 36.1930 -4.4990 0
M  V30 54 O  -17.0840 35.1590 -4.6000 0
M  V30 55 O  -15.9220 36.7900 -5.4990 0 CHG=-1
M  V30 56 H  -14.6270 37.5260 -1.3160 0
M  V30 57 H  -16.5180 35.3920 -1.6000 0
M  V30 58 H  -15.3700 37.6120 -3.2620 0
M  V30 59 H  -17.0130 37.3330 -2.7990 0
M  V30 60 N  -15.2420 33.4420 -2.6180 0
M  V30 61 C  -14.4280 32.2440 -2.9410 0 CFG=2
M  V30 62 C  -13.8500 32.2640 -4.3570 0
M  V30 63 O  -12.8360 31.6210 -4.6340 0
M  V30 64 C  -15.4260 31.0770 -2.8140 0
M  V30 65 C  -16.7710 31.6800 -2.7830 0
M  V30 66 C  -16.6250 33.0840 -2.2600 0
M  V30 67 H  -13.6260 32.1300 -2.2130 0
M  V30 68 H  -15.2450 30.5460 -1.8790 0
M  V30 69 H  -15.3390 30.4290 -3.6860 0
M  V30 70 H  -17.4100 31.1070 -2.1120 0
M  V30 71 H  -17.1780 31.7100 -3.7940 0
M  V30 72 H  -17.3150 33.7400 -2.7900 0
M  V30 73 H  -16.7250 33.0760 -1.1740 0
M  V30 74 N  -14.4920 33.0170 -5.2340 0
M  V30 75 C  -14.0090 33.1690 -6.5770 0 CFG=2
M  V30 76 C  -12.6590 33.8750 -6.6510 0
M  V30 77 O  -12.0190 33.8010 -7.6700 0
M  V30 78 C  -15.0480 33.8880 -7.4240 0
M  V30 79 O  -15.2910 35.1670 -6.9060 0
M  V30 80 H  -15.3380 33.4980 -4.9630 0
M  V30 81 H  -13.8810 32.1710 -6.9940 0
M  V30 82 H  -15.9760 33.3150 -7.4250 0
M  V30 83 H  -14.6850 33.9740 -8.4480 0
M  V30 84 H  -15.8580 35.3110 -6.1340 0
M  V30 85 N  -12.2470 34.5290 -5.5580 0
M  V30 86 C  -11.0350 35.3170 -5.4820 0 CFG=2
M  V30 87 C  -9.8520 34.4750 -5.0220 0
M  V30 88 O  -8.7350 34.9960 -4.9700 0
M  V30 89 C  -11.2360 36.4880 -4.4940 0
M  V30 90 C  -12.3140 37.4920 -4.9010 0
M  V30 91 C  -12.3190 38.7950 -4.0980 0
M  V30 92 O  -11.5450 38.9540 -3.1180 0
M  V30 93 O  -13.1190 39.6960 -4.4610 0 CHG=-1
M  V30 94 H  -12.7950 34.4920 -4.7100 0
M  V30 95 H  -10.8160 35.7230 -6.4700 0
M  V30 96 H  -10.2890 37.0110 -4.3580 0
M  V30 97 H  -11.4670 36.0900 -3.5060 0
M  V30 98 H  -13.2940 37.0190 -4.8260 0
M  V30 99 H  -12.2120 37.7220 -5.9610 0
M  V30 100 N  -10.1070 33.2130 -4.6350 0
M  V30 101 C  -9.0750 32.2880 -4.1610 0 CFG=2
M  V30 102 C  -8.8380 31.1260 -5.1230 0
M  V30 103 O  -9.7360 30.5920 -5.7300 0
M  V30 104 C  -9.4070 31.7200 -2.7690 0
M  V30 105 C  -9.5320 32.7300 -1.6300 0
M  V30 106 C  -10.0850 32.0670 -0.3730 0
M  V30 107 C  -8.1970 33.4540 -1.3780 0
M  V30 108 H  -11.0530 32.8580 -4.6620 0
M  V30 109 H  -8.1420 32.8460 -4.0780 0
M  V30 110 H  -8.6640 30.9680 -2.5010 0
M  V30 111 H  -10.3230 31.1320 -2.8300 0
M  V30 112 H  -10.2550 33.4840 -1.9440 0
M  V30 113 H  -10.1660 32.8070 0.4230 0
M  V30 114 H  -11.0710 31.6520 -0.5840 0
M  V30 115 H  -9.4150 31.2670 -0.0590 0
M  V30 116 H  -8.3180 34.1670 -0.5620 0
M  V30 117 H  -7.4320 32.7240 -1.1110 0
M  V30 118 H  -7.8940 33.9840 -2.2810 0
M  V30 119 N  -7.5670 30.8050 -5.2540 0
M  V30 120 C  -7.0780 29.6350 -5.9070 0 CFG=2
M  V30 121 C  -6.2830 28.8500 -4.8880 0
M  V30 122 O  -5.3210 29.3910 -4.2930 0
M  V30 123 C  -6.1360 30.0400 -7.0350 0 CFG=2
M  V30 124 O  -6.8920 30.8350 -7.9010 0
M  V30 125 C  -5.6260 28.8480 -7.7920 0
M  V30 126 H  -6.8520 31.4100 -4.8760 0
M  V30 127 H  -7.9040 29.0380 -6.2920 0
M  V30 128 H  -5.3000 30.6140 -6.6360 0
M  V30 129 H  -7.6110 31.2140 -7.4060 0
M  V30 130 H  -4.9590 29.1800 -8.5870 0
M  V30 131 H  -5.0840 28.1910 -7.1120 0
M  V30 132 H  -6.4670 28.3070 -8.2260 0
M  V30 133 N  -6.6810 27.5940 -4.6890 0
M  V30 134 C  -5.9680 26.6610 -3.7830 0 CFG=2
M  V30 135 C  -4.9160 25.9190 -4.6010 0
M  V30 136 O  -5.1840 25.5590 -5.7520 0
M  V30 137 C  -6.9040 25.6070 -3.2360 0
M  V30 138 C  -7.8790 26.1040 -2.2100 0
M  V30 139 C  -8.8260 27.0810 -2.5210 0
M  V30 140 C  -7.9090 25.5210 -0.9480 0
M  V30 141 C  -9.7580 27.5040 -1.5720 0
M  V30 142 C  -8.8220 25.9590 0.0120 0
M  V30 143 C  -9.7510 26.9360 -0.2980 0
M  V30 144 H  -7.4990 27.2430 -5.1650 0
M  V30 145 H  -5.4960 27.2090 -2.9680 0
M  V30 146 H  -6.3200 24.7900 -2.8130 0
M  V30 147 H  -7.4500 25.1470 -4.0600 0
M  V30 148 H  -8.8450 27.5210 -3.5080 0
M  V30 149 H  -7.2240 24.7230 -0.7050 0
M  V30 150 H  -10.4800 28.2660 -1.8250 0
M  V30 151 H  -8.8070 25.5360 1.0050 0
M  V30 152 H  -10.4680 27.2600 0.4420 0
M  V30 153 N  -3.7310 25.7010 -4.0480 0
M  V30 154 C  -2.7330 24.9770 -4.8070 0 CFG=2
M  V30 155 C  -2.4720 23.6390 -4.1330 0
M  V30 156 O  -3.2380 22.7120 -4.3160 0
M  V30 157 C  -1.4590 25.8090 -5.1170 0
M  V30 158 C  -0.6630 25.1220 -6.2210 0
M  V30 159 C  -1.8360 27.2140 -5.5850 0
M  V30 160 H  -3.5400 26.0380 -3.1150 0
M  V30 161 H  -3.1890 24.7490 -5.7700 0
M  V30 162 H  -0.8460 25.8800 -4.2190 0
M  V30 163 H  0.2320 25.7040 -6.4410 0
M  V30 164 H  -0.3740 24.1230 -5.8940 0
M  V30 165 H  -1.2760 25.0460 -7.1190 0
M  V30 166 H  -0.9310 27.7820 -5.7980 0
M  V30 167 H  -2.4420 27.1450 -6.4890 0
M  V30 168 H  -2.4050 27.7170 -4.8040 0
M  V30 169 N  -1.4610 23.5560 -3.2940 0
M  V30 170 C  -1.0280 22.3280 -2.7330 0 CFG=2
M  V30 171 C  -1.1060 22.3940 -1.1970 0
M  V30 172 O  -0.9950 23.4440 -0.5970 0
M  V30 173 C  0.4150 22.1180 -3.2050 0
M  V30 174 C  1.4530 22.7060 -2.2650 0
M  V30 175 C  2.6180 23.3580 -2.9600 0
M  V30 176 O  2.4490 24.2530 -3.7890 0
M  V30 177 N  3.8180 22.9580 -2.5730 0
M  V30 178 H  -0.9590 24.3910 -3.0250 0
M  V30 179 H  -1.6560 21.5150 -3.0980 0
M  V30 180 H  0.5370 22.5540 -4.1970 0
M  V30 181 H  0.6030 21.0520 -3.3310 0
M  V30 182 H  1.8200 21.9250 -1.5990 0
M  V30 183 H  0.9740 23.4300 -1.6060 0
M  V30 184 H  4.6440 23.3550 -2.9990 0
M  V30 185 H  3.9090 22.2570 -1.8530 0
M  V30 186 N  -1.2890 21.2510 -0.5600 0
M  V30 187 C  -1.1580 21.1440 0.8960 0 CFG=2
M  V30 188 C  0.2760 21.4670 1.3260 0
M  V30 189 O  1.2520 21.0910 0.6350 0
M  V30 190 C  -1.6080 19.7460 1.3570 0
M  V30 191 C  -3.1180 19.5660 1.1640 0
M  V30 192 C  -3.6540 18.1680 1.4300 0
M  V30 193 O  -4.5460 17.6990 0.6670 0
M  V30 194 O  -3.2030 17.5250 2.3870 0 CHG=-1
M  V30 195 H  -1.5260 20.4160 -1.0770 0
M  V30 196 H  -1.8220 21.8800 1.3500 0
M  V30 197 H  -1.3580 19.6140 2.4100 0
M  V30 198 H  -1.0760 18.9860 0.7850 0
M  V30 199 H  -3.3900 19.8700 0.1530 0
M  V30 200 H  -3.6490 20.2810 1.7930 0
M  V30 201 N  0.4000 22.2090 2.4320 0
M  V30 202 C  1.6880 22.5860 2.9990 0 CFG=2
M  V30 203 C  1.5940 22.3160 4.4910 0
M  V30 204 O  0.4960 22.2020 5.0330 0
M  V30 205 C  2.0880 24.0770 2.7100 0 CFG=2
M  V30 206 C  1.1250 25.0590 3.3990 0
M  V30 207 C  2.2550 24.3110 1.1940 0
M  V30 208 C  1.3110 26.4950 3.0090 0
M  V30 209 H  -0.4240 22.5350 2.9160 0
M  V30 210 H  2.4550 21.9350 2.5790 0
M  V30 211 H  3.0680 24.2310 3.1610 0
M  V30 212 H  1.2250 24.9630 4.4800 0
M  V30 213 H  0.0970 24.7600 3.1960 0
M  V30 214 H  2.5320 25.3500 1.0150 0
M  V30 215 H  3.0370 23.6560 0.8090 0
M  V30 216 H  1.3160 24.0930 0.6860 0
M  V30 217 H  0.5900 27.1130 3.5440 0
M  V30 218 H  2.3220 26.8130 3.2630 0
M  V30 219 H  1.1560 26.6030 1.9350 0
M  V30 220 N  2.7500 22.1830 5.1440 0
M  V30 221 C  2.8010 22.0200 6.5940 0
M  V30 222 C  2.7760 20.5670 7.0640 0
M  V30 223 O  2.4390 19.6430 6.3160 0
M  V30 224 H  3.6220 22.1950 4.6340 0
M  V30 225 H  1.9710 22.5610 7.0480 0
M  V30 226 H  3.6950 22.5090 6.9810 0
M  V30 227 N  3.1520 20.3800 8.3210 0
M  V30 228 C  3.1760 19.0470 8.9340 0 CFG=2
M  V30 229 C  1.9510 18.7720 9.8040 0
M  V30 230 O  1.9650 17.8160 10.5410 0
M  V30 231 C  4.4400 18.8480 9.7890 0
M  V30 232 O  5.5950 19.4430 9.1900 0
M  V30 233 H  3.4340 21.1670 8.8870 0
M  V30 234 H  3.1920 18.3080 8.1320 0
M  V30 235 H  4.6160 17.7820 9.9340 0
M  V30 236 H  4.2810 19.2800 10.7770 0
M  V30 237 H  6.0900 19.9310 9.8520 0
M  V30 238 N  0.9140 19.6090 9.7480 0
M  V30 239 C  -0.3410 19.2940 10.4390 0
M  V30 240 C  -0.5110 19.8750 11.8150 0
M  V30 241 O  -1.5190 19.6290 12.4600 0
M  V30 242 H  0.9870 20.4710 9.2270 0
M  V30 243 H  -0.4630 18.2120 10.4880 0
M  V30 244 H  -1.1810 19.6000 9.8140 0
M  V30 245 N  0.4350 20.7060 12.2510 0
M  V30 246 C  0.3030 21.4100 13.5300 0 CFG=2
M  V30 247 C  -0.7320 22.5460 13.4920 0
M  V30 248 O  -1.2060 22.9980 14.5490 0
M  V30 249 C  1.6530 21.8910 14.0840 0
M  V30 250 C  2.5470 22.6110 13.1050 0
M  V30 251 C  3.5840 21.7190 12.4060 0
M  V30 252 O  3.4970 21.6700 11.0990 0
M  V30 253 N  4.4890 21.1480 13.0300 0
M  V30 254 H  1.2660 20.8610 11.6980 0
M  V30 255 H  -0.0750 20.6780 14.2430 0
M  V30 256 H  2.1920 21.0420 14.5060 0
M  V30 257 H  1.4800 22.5300 14.9500 0
M  V30 258 H  3.0580 23.4270 13.6160 0
M  V30 259 H  1.9320 23.1070 12.3530 0
M  V30 260 H  5.1540 20.5690 12.5380 0
M  V30 261 H  4.5630 21.2630 14.0310 0
M  V30 262 N  -1.1140 22.9780 12.2970 0
M  V30 263 C  -2.2800 23.8610 12.1220 0 CFG=2
M  V30 264 C  -3.4420 23.2070 11.3040 0
M  V30 265 O  -4.3240 23.9010 10.8110 0
M  V30 266 C  -1.8470 25.1730 11.4730 0
M  V30 267 C  -0.7820 25.9050 12.2440 0
M  V30 268 C  -1.1220 26.8020 13.2490 0
M  V30 269 C  0.5580 25.7290 11.9490 0
M  V30 270 C  -0.1460 27.4980 13.9510 0
M  V30 271 C  1.5430 26.4420 12.6470 0
M  V30 272 C  1.1870 27.3210 13.6420 0
M  V30 273 H  -0.6010 22.7010 11.4720 0
M  V30 274 H  -2.6660 24.0960 13.1140 0
M  V30 275 H  -2.7150 25.8210 11.3520 0
M  V30 276 H  -1.4900 24.9760 10.4620 0
M  V30 277 H  -2.1600 26.9680 13.4960 0
M  V30 278 H  0.8540 25.0380 11.1740 0
M  V30 279 H  -0.4300 28.1800 14.7390 0
M  V30 280 H  2.5850 26.3010 12.4040 0
M  V30 281 H  1.9450 27.8710 14.1800 0
M  V30 282 N  -3.4310 21.8880 11.1810 0
M  V30 283 C  -4.4480 21.1580 10.4270 0
M  V30 284 C  -4.1960 21.1850 8.9250 0
M  V30 285 O  -3.0460 21.2220 8.4500 0
M  V30 286 H  -2.6990 21.3460 11.6180 0
M  V30 287 H  -5.4300 21.5830 10.6380 0
M  V30 288 H  -4.4810 20.1240 10.7700 0
M  V30 289 N  -5.3070 21.2380 8.1870 0
M  V30 290 C  -5.3330 21.2520 6.7620 0 CFG=2
M  V30 291 C  -5.1050 22.6820 6.2570 0
M  V30 292 O  -5.9970 23.5360 6.3880 0
M  V30 293 C  -6.6940 20.7080 6.3170 0
M  V30 294 C  -7.0280 20.6500 4.8280 0
M  V30 295 C  -5.8910 20.0170 4.0030 0
M  V30 296 C  -8.3340 19.8810 4.6450 0
M  V30 297 H  -6.2110 21.2700 8.6370 0
M  V30 298 H  -4.5440 20.6050 6.3810 0
M  V30 299 H  -7.4810 21.2530 6.8370 0
M  V30 300 H  -6.8400 19.7190 6.7520 0
M  V30 301 H  -7.1800 21.6700 4.4730 0
M  V30 302 H  -6.1730 19.9970 2.9500 0
M  V30 303 H  -4.9820 20.6070 4.1240 0
M  V30 304 H  -5.7120 19.0000 4.3500 0
M  V30 305 H  -8.5820 19.8340 3.5840 0
M  V30 306 H  -8.2180 18.8700 5.0360 0
M  V30 307 H  -9.1340 20.3890 5.1830 0
M  V30 308 N  -3.9150 22.9070 5.6610 0
M  V30 309 C  -3.5050 24.1830 5.1090 0 CFG=2
M  V30 310 C  -3.1080 23.9460 3.6700 0
M  V30 311 O  -2.3910 22.9580 3.3770 0
M  V30 312 C  -2.2680 24.7590 5.8740 0
M  V30 313 C  -1.8860 26.1600 5.4090 0
M  V30 314 C  -2.5520 24.8620 7.3410 0
M  V30 315 H  -3.2420 22.1590 5.5780 0
M  V30 316 H  -4.3330 24.8910 5.1540 0
M  V30 317 H  -1.4180 24.0930 5.7250 0
M  V30 318 H  -1.0220 26.5090 5.9750 0
M  V30 319 H  -1.6390 26.1370 4.3480 0
M  V30 320 H  -2.7240 26.8380 5.5720 0
M  V30 321 H  -1.6790 25.2650 7.8540 0
M  V30 322 H  -3.4040 25.5240 7.5010 0
M  V30 323 H  -2.7820 23.8730 7.7380 0
M  V30 324 N  -3.5690 24.8410 2.7830 0
M  V30 325 C  -3.0550 24.9360 1.4240 0 CFG=2
M  V30 326 C  -2.2550 26.1920 1.1830 0
M  V30 327 O  -2.4990 27.2080 1.7970 0
M  V30 328 C  -4.2140 24.9270 0.4360 0
M  V30 329 C  -4.9450 23.6300 0.4090 0
M  V30 330 N  -5.7960 23.0740 1.2930 0
M  V30 331 C  -4.8020 22.7200 -0.6150 0
M  V30 332 C  -6.1780 21.8630 0.7740 0
M  V30 333 N  -5.5590 21.6690 -0.3730 0
M  V30 334 H  -4.3010 25.4830 3.0480 0
M  V30 335 H  -2.4200 24.0730 1.2270 0
M  V30 336 H  -3.8410 25.1540 -0.5630 0
M  V30 337 H  -4.9090 25.7290 0.6860 0
M  V30 338 H  -4.1860 22.9230 -1.3890 0
M  V30 339 H  -6.8380 21.2850 1.2740 0
M  V30 340 H  -5.5840 20.8480 -1.0750 0
M  V30 341 N  -1.2810 26.1100 0.2790 0
M  V30 342 C  -0.7400 27.2960 -0.3610 0 CFG=2
M  V30 343 C  -1.8250 27.8480 -1.2950 0
M  V30 344 O  -2.4760 27.1060 -1.9990 0
M  V30 345 C  0.5440 26.9650 -1.1540 0
M  V30 346 C  1.2270 28.0820 -1.9100 0
M  V30 347 C  1.5670 29.2100 -0.9570 0
M  V30 348 C  2.4970 27.6000 -2.5910 0
M  V30 349 H  -0.9030 25.2090 0.0250 0
M  V30 350 H  -0.5090 28.0410 0.4010 0
M  V30 351 H  0.3370 26.1440 -1.8410 0
M  V30 352 H  1.2640 26.4940 -0.4860 0
M  V30 353 H  0.5430 28.4600 -2.6700 0
M  V30 354 H  2.0590 30.0130 -1.5050 0
M  V30 355 H  0.6520 29.5890 -0.5010 0
M  V30 356 H  2.2340 28.8400 -0.1790 0
M  V30 357 H  2.9610 28.4290 -3.1250 0
M  V30 358 H  3.1890 27.2180 -1.8410 0
M  V30 359 H  2.2520 26.8060 -3.2970 0
M  V30 360 N  -2.0230 29.1500 -1.3320 0
M  V30 361 C  -2.9680 29.6620 -2.2960 0
M  V30 362 C  -2.5510 30.9810 -2.8610 0
M  V30 363 O  -1.5500 31.5510 -2.4310 0
M  V30 364 H  -1.5200 29.7560 -0.7000 0
M  V30 365 H  -3.9460 29.7620 -1.8270 0
M  V30 366 H  -3.0850 28.9420 -3.1070 0
M  V30 367 N  -3.3480 31.4620 -3.8120 0
M  V30 368 C  -3.2690 32.8230 -4.3210 0 CFG=2
M  V30 369 C  -4.5690 33.5360 -4.1080 0
M  V30 370 O  -5.6310 32.9660 -4.2660 0
M  V30 371 C  -2.9260 32.8350 -5.8270 0
M  V30 372 C  -1.5540 32.2750 -6.0880 0
M  V30 373 C  -0.4170 33.0560 -5.8960 0
M  V30 374 C  -1.3920 30.9480 -6.4930 0
M  V30 375 C  0.8490 32.5430 -6.1120 0
M  V30 376 C  -0.1310 30.4220 -6.7110 0
M  V30 377 C  0.9790 31.2220 -6.5080 0
M  V30 378 O  2.2160 30.6880 -6.7070 0
M  V30 379 H  -4.0570 30.8710 -4.2220 0
M  V30 380 H  -2.4860 33.3540 -3.7800 0
M  V30 381 H  -2.9790 33.8570 -6.2020 0
M  V30 382 H  -3.6670 32.2490 -6.3720 0
M  V30 383 H  -0.5150 34.0820 -5.5730 0
M  V30 384 H  -2.2570 30.3180 -6.6400 0
M  V30 385 H  1.7170 33.1690 -5.9710 0
M  V30 386 H  -0.0220 29.3980 -7.0360 0
M  V30 387 H  2.8840 31.0990 -6.1820 0
M  V30 388 N  -4.4790 34.8020 -3.7670 0
M  V30 389 C  -5.6380 35.6190 -3.5490 0 CFG=2
M  V30 390 C  -5.6200 36.7720 -4.5560 0
M  V30 391 O  -4.6750 37.5500 -4.5190 0
M  V30 392 C  -5.5930 36.1660 -2.1100 0
M  V30 393 C  -6.7540 37.0350 -1.7340 0
M  V30 394 C  -8.0180 37.0020 -2.2670 0
M  V30 395 C  -6.7830 38.0410 -0.7040 0
M  V30 396 N  -8.8210 37.9460 -1.6440 0
M  V30 397 C  -8.0850 38.5820 -0.6780 0
M  V30 398 C  -5.8330 38.5340 0.1950 0
M  V30 399 C  -8.4460 39.6120 0.1830 0
M  V30 400 C  -6.2050 39.5550 1.0430 0
M  V30 401 C  -7.4980 40.0810 1.0320 0
M  V30 402 H  -3.5720 35.2300 -3.6500 0
M  V30 403 H  -6.5400 35.0240 -3.6880 0
M  V30 404 H  -4.6650 36.7200 -1.9630 0
M  V30 405 H  -5.5230 35.3340 -1.4100 0
M  V30 406 H  -8.2530 36.3040 -3.0570 0
M  V30 407 H  -9.7820 38.0620 -1.9340 0
M  V30 408 H  -4.8380 38.1150 0.2120 0
M  V30 409 H  -9.4500 40.0090 0.1590 0
M  V30 410 H  -5.4880 39.9680 1.7370 0
M  V30 411 H  -7.7370 40.8790 1.7200 0
M  V30 412 N  -6.6620 36.8980 -5.4030 0
M  V30 413 C  -6.8160 38.0450 -6.3650 0 CFG=2
M  V30 414 C  -5.4410 38.4610 -6.8790 0
M  V30 415 O  -4.8140 39.4140 -6.3980 0
M  V30 416 C  -7.5610 39.2480 -5.7500 0
M  V30 417 C  -9.0990 39.2270 -5.7910 0
M  V30 418 C  -9.6610 40.6290 -5.5850 0
M  V30 419 C  -9.6540 38.6330 -7.0930 0
M  V30 420 H  -7.3920 36.2010 -5.4120 0
M  V30 421 H  -7.3980 37.6910 -7.2160 0
M  V30 422 H  -7.2030 40.1670 -6.2160 0
M  V30 423 H  -7.2330 39.3840 -4.7190 0
M  V30 424 H  -9.4450 38.6040 -4.9660 0
M  V30 425 H  -10.7500 40.5920 -5.6170 0
M  V30 426 H  -9.3390 41.0100 -4.6160 0
M  V30 427 H  -9.2960 41.2870 -6.3730 0
M  V30 428 H  -10.7440 38.6450 -7.0620 0
M  V30 429 H  -9.3090 39.2260 -7.9400 0
M  V30 430 H  -9.3060 37.6060 -7.2030 0
M  V30 431 N  -5.0160 37.7220 -7.8910 0
M  V30 432 C  -3.6650 37.1800 -7.9290 0 CFG=2
M  V30 433 C  -2.5890 38.2400 -8.2040 0
M  V30 434 O  -2.9260 39.3420 -8.6330 0
M  V30 435 C  -3.6380 35.9850 -8.9140 0
M  V30 436 C  -4.5690 34.8300 -8.4900 0
M  V30 437 O  -4.5390 33.7620 -9.0930 0
M  V30 438 N  -5.3860 35.0400 -7.4560 0
M  V30 439 H  -5.6350 37.5200 -8.6640 0
M  V30 440 H  -3.4610 36.7750 -6.9380 0
M  V30 441 H  -2.6170 35.6120 -9.0040 0
M  V30 442 H  -3.9180 36.3290 -9.9090 0
M  V30 443 H  -6.0110 34.3070 -7.1490 0
M  V30 444 H  -5.3800 35.9300 -6.9800 0
M  V30 445 N  -1.3090 37.9530 -7.9460 0
M  V30 446 C  -0.7980 36.6320 -7.5440 0 CFG=2
M  V30 447 C  -0.1370 36.6930 -6.1550 0
M  V30 448 O  1.0470 36.3480 -5.9920 0
M  V30 449 C  0.1800 36.1110 -8.6090 0
M  V30 450 C  -0.3700 36.1430 -10.0410 0
M  V30 451 C  0.6310 35.6460 -11.0790 0
M  V30 452 C  1.1180 34.2290 -10.7960 0
M  V30 453 N  0.0290 33.2820 -10.4060 0 CHG=1
M  V30 454 H  -0.6050 38.6730 -8.0220 0
M  V30 455 H  -1.6410 35.9430 -7.4890 0
M  V30 456 H  0.4770 35.0920 -8.3590 0
M  V30 457 H  1.1040 36.6870 -8.5640 0
M  V30 458 H  -0.6740 37.1590 -10.2900 0
M  V30 459 H  -1.2760 35.5390 -10.0950 0
M  V30 460 H  1.4860 36.3220 -11.1100 0
M  V30 461 H  0.1760 35.6820 -12.0680 0
M  V30 462 H  1.8720 34.2560 -10.0100 0
M  V30 463 H  1.6350 33.8420 -11.6740 0
M  V30 464 H  -0.3950 33.5930 -9.5440 0
M  V30 465 H  -0.6710 33.2550 -11.1340 0
M  V30 466 H  0.4150 32.3580 -10.2770 0
M  V30 467 N  -0.9370 37.1190 -5.1660 0
M  V30 468 C  -0.5100 37.2330 -3.7600 0 CFG=2
M  V30 469 C  -0.5360 35.8350 -3.0960 0
M  V30 470 O  -1.6170 35.2450 -3.0080 0
M  V30 471 C  -1.4650 38.1550 -2.9490 0
M  V30 472 C  -2.0350 39.3390 -3.7560 0
M  V30 473 O  -1.7040 39.5220 -4.9570 0
M  V30 474 O  -2.8600 40.0830 -3.1620 0 CHG=-1
M  V30 475 H  -1.8910 37.3840 -5.3660 0
M  V30 476 H  0.5020 37.6350 -3.7190 0
M  V30 477 H  -0.9410 38.5340 -2.0720 0
M  V30 478 H  -2.2860 37.5610 -2.5490 0
M  V30 479 N  0.6070 35.3020 -2.6430 0
M  V30 480 C  0.6050 34.0270 -1.9010 0 CFG=2
M  V30 481 C  -0.0480 34.1550 -0.5200 0
M  V30 482 O  0.2420 35.0830 0.2050 0
M  V30 483 C  1.9910 33.4920 -1.7190 0
M  V30 484 C  2.4500 32.6150 -2.8570 0
M  V30 485 C  3.9380 32.7770 -3.1000 0
M  V30 486 C  4.7200 32.5970 -1.8210 0
M  V30 487 N  6.1720 32.4930 -2.1130 0 CHG=1
M  V30 488 H  1.4840 35.7750 -2.8090 0
M  V30 489 H  0.0350 33.2990 -2.4790 0
M  V30 490 H  2.0430 32.9310 -0.7860 0
M  V30 491 H  2.6860 34.3230 -1.5990 0
M  V30 492 H  1.9030 32.8790 -3.7620 0
M  V30 493 H  2.2320 31.5730 -2.6220 0
M  V30 494 H  4.1330 33.7690 -3.5080 0
M  V30 495 H  4.2680 32.0410 -3.8330 0
M  V30 496 H  4.3860 31.6910 -1.3150 0
M  V30 497 H  4.5420 33.4490 -1.1640 0
M  V30 498 H  6.7010 32.7750 -1.3000 0
M  V30 499 H  6.4010 31.5380 -2.3490 0
M  V30 500 H  6.4030 33.0960 -2.8900 0
M  V30 501 N  -0.9130 33.2050 -0.1580 0
M  V30 502 C  -1.5830 33.1940 1.1500 0 CFG=2
M  V30 503 C  -1.4780 31.7390 1.5950 0
M  V30 504 O  -1.0330 30.9090 0.8270 0
M  V30 505 C  -3.0490 33.6990 1.1040 0
M  V30 506 C  -3.1270 35.1430 0.6120 0
M  V30 507 C  -3.9310 32.8330 0.2190 0
M  V30 508 H  -1.1300 32.4510 -0.7940 0
M  V30 509 H  -1.0160 33.8170 1.8420 0
M  V30 510 H  -3.4500 33.6650 2.1170 0
M  V30 511 H  -4.1690 35.4650 0.5930 0
M  V30 512 H  -2.5610 35.7870 1.2840 0
M  V30 513 H  -2.7090 35.2080 -0.3920 0
M  V30 514 H  -4.9470 33.2270 0.2200 0
M  V30 515 H  -3.5410 32.8380 -0.7990 0
M  V30 516 H  -3.9370 31.8120 0.6000 0
M  V30 517 N  -1.7710 31.4940 2.8670 0
M  V30 518 C  -1.9590 30.1900 3.4290 0 CFG=2
M  V30 519 C  -3.4530 30.1000 3.7070 0
M  V30 520 O  -4.0610 31.0130 4.3110 0
M  V30 521 C  -1.1730 30.0520 4.7020 0
M  V30 522 H  -1.8770 32.2600 3.5170 0
M  V30 523 H  -1.6600 29.4230 2.7150 0
M  V30 524 H  -1.3260 29.0560 5.1170 0
M  V30 525 H  -0.1140 30.1990 4.4930 0
M  V30 526 H  -1.5090 30.8000 5.4200 0
M  V30 527 N  -4.0750 29.0510 3.1990 0
M  V30 528 C  -5.4970 28.8660 3.4300 0 CFG=2
M  V30 529 C  -5.7270 27.7000 4.3460 0
M  V30 530 O  -5.2530 26.5790 4.1130 0
M  V30 531 C  -6.2920 28.6720 2.1310 0 CFG=2
M  V30 532 C  -6.0660 29.8680 1.1670 0
M  V30 533 C  -7.7880 28.4510 2.4620 0
M  V30 534 C  -6.6190 29.6690 -0.2640 0
M  V30 535 H  -3.5610 28.3770 2.6490 0
M  V30 536 H  -5.8750 29.7610 3.9250 0
M  V30 537 H  -5.9200 27.7720 1.6420 0
M  V30 538 H  -5.0010 30.0920 1.1140 0
M  V30 539 H  -6.5030 30.7680 1.6010 0
M  V30 540 H  -8.3490 28.3140 1.5370 0
M  V30 541 H  -7.8960 27.5640 3.0860 0
M  V30 542 H  -8.1750 29.3190 2.9950 0
M  V30 543 H  -6.4130 30.5580 -0.8600 0
M  V30 544 H  -6.1400 28.8050 -0.7220 0
M  V30 545 H  -7.6960 29.5050 -0.2180 0
M  V30 546 N  -6.5120 27.9470 5.3670 0
M  V30 547 C  -6.7330 26.9280 6.3220 0 CFG=2
M  V30 548 C  -8.2260 26.5520 6.3790 0
M  V30 549 O  -9.1100 27.3860 6.6730 0
M  V30 550 C  -6.1820 27.4000 7.6530 0
M  V30 551 C  -6.3720 26.3680 8.7400 0
M  V30 552 C  -7.5980 26.6790 9.5390 0
M  V30 553 C  -7.1850 27.1140 10.9260 0
M  V30 554 N  -6.7860 25.8670 11.6420 0 CHG=1
M  V30 555 H  -6.9480 28.8530 5.4620 0
M  V30 556 H  -6.1710 26.0460 6.0150 0
M  V30 557 H  -6.6770 28.3270 7.9430 0
M  V30 558 H  -5.1210 27.6240 7.5480 0
M  V30 559 H  -5.5010 26.3670 9.3970 0
M  V30 560 H  -6.4720 25.3800 8.2900 0
M  V30 561 H  -8.2210 25.7870 9.6100 0
M  V30 562 H  -8.1520 27.4830 9.0560 0
M  V30 563 H  -8.0380 27.5660 11.4320 0
M  V30 564 H  -6.3260 27.7810 10.8540 0
M  V30 565 H  -5.9930 25.4500 11.1760 0
M  V30 566 H  -6.5380 26.0910 12.5950 0
M  V30 567 H  -7.5580 25.2160 11.6390 0
M  V30 568 N  -8.5110 25.3050 6.0520 0
M  V30 569 C  -9.8960 24.7660 6.1130 0 CFG=2
M  V30 570 C  -10.3390 24.4390 7.5370 0
M  V30 571 O  -9.5990 23.7950 8.2940 0
M  V30 572 C  -9.9880 23.4840 5.3230 0 CFG=2
M  V30 573 O  -9.5220 23.7240 3.9870 0
M  V30 574 C  -11.4130 22.9090 5.3230 0
M  V30 575 H  -7.7760 24.6830 5.7470 0
M  V30 576 H  -10.5820 25.4980 5.6860 0
M  V30 577 H  -9.3270 22.7520 5.7860 0
M  V30 578 H  -8.5970 24.0140 3.8920 0
M  V30 579 H  -11.4340 21.9870 4.7430 0
M  V30 580 H  -11.7210 22.7000 6.3480 0
M  V30 581 H  -12.0980 23.6320 4.8790 0
M  V30 582 N  -11.5300 24.8970 7.9070 0
M  V30 583 C  -12.0940 24.6390 9.2300 0 CFG=2
M  V30 584 C  -13.4880 23.9880 9.1700 0
M  V30 585 O  -14.1310 23.9880 8.1200 0
M  V30 586 C  -12.1440 25.9380 10.0620 0 CFG=2
M  V30 587 C  -12.9390 27.0420 9.3550 0
M  V30 588 C  -10.7330 26.4400 10.3240 0
M  V30 589 C  -13.2390 28.2370 10.2430 0
M  V30 590 H  -12.0810 25.4470 7.2630 0
M  V30 591 H  -11.4280 23.9440 9.7420 0
M  V30 592 H  -12.6210 25.7220 11.0180 0
M  V30 593 H  -13.8740 26.6290 8.9760 0
M  V30 594 H  -12.3900 27.3740 8.4740 0
M  V30 595 H  -10.7760 27.3570 10.9110 0
M  V30 596 H  -10.1730 25.6830 10.8730 0
M  V30 597 H  -10.2360 26.6400 9.3740 0
M  V30 598 H  -13.8030 28.9790 9.6770 0
M  V30 599 H  -13.8260 27.9140 11.1030 0
M  V30 600 H  -12.3040 28.6790 10.5870 0
M  V30 601 N  -13.9510 23.4710 10.3150 0
M  V30 602 C  -15.2610 22.8060 10.4470 0 CFG=2
M  V30 603 C  -16.4690 23.7520 10.3110 0
M  V30 604 O  -16.4160 24.9350 10.6170 0
M  V30 605 H  -13.3930 23.5240 11.1550 0
M  V30 606 H  -15.3340 22.0700 9.6460 0
M  V30 607 N  -17.5790 23.1820 9.8690 0
M  V30 608 C  -18.7210 23.9380 9.3960 0 CFG=2
M  V30 609 C  -19.4150 24.7600 10.4700 0
M  V30 610 O  -19.6960 25.9480 10.2390 0
M  V30 611 H  -17.6570 22.1750 9.8510 0
M  V30 612 H  -18.3580 24.6330 8.6390 0
M  V30 613 N  -19.6940 24.1670 11.6320 0
M  V30 614 C  -20.6300 24.8260 12.5690 0
M  V30 615 C  -20.1580 24.9620 14.0280 0
M  V30 616 O  -20.9690 24.8890 14.9560 0
M  V30 617 H  -19.2690 23.2800 11.8600 0
M  V30 618 H  -21.5870 24.3040 12.5490 0
M  V30 619 H  -20.8910 25.8120 12.1830 0
M  V30 620 N  -18.8600 25.2040 14.2070 0
M  V30 621 C  -18.2550 25.4430 15.5320 0 CFG=2
M  V30 622 C  -18.6090 26.8080 16.1720 0
M  V30 623 O  -18.3860 26.9970 17.3810 0
M  V30 624 C  -16.7380 25.3110 15.4360 0
M  V30 625 H  -18.2370 25.2290 13.4120 0
M  V30 626 H  -18.6120 24.6620 16.2030 0
M  V30 627 H  -16.2940 25.4880 16.4150 0
M  V30 628 H  -16.4810 24.3070 15.0970 0
M  V30 629 H  -16.3530 26.0430 14.7260 0
M  V30 630 N  -19.1430 27.7650 15.3990 0
M  V30 631 C  -19.3070 29.1240 15.9400 0 CFG=2
M  V30 632 C  -20.6550 29.8120 15.7150 0
M  V30 633 O  -21.1740 30.4480 16.6240 0
M  V30 634 C  -18.1770 30.0350 15.4230 0
M  V30 635 C  -17.6190 30.9990 16.4760 0
M  V30 636 S  -15.9340 31.6160 16.1560 0
M  V30 637 C  -15.0360 30.1230 15.6780 0
M  V30 638 H  -19.4290 27.5510 14.4540 0
M  V30 639 H  -19.1740 29.0470 17.0190 0
M  V30 640 H  -18.5350 30.6040 14.5650 0
M  V30 641 H  -17.3670 29.4190 15.0320 0
M  V30 642 H  -17.6470 30.5200 17.4540 0
M  V30 643 H  -18.2980 31.8450 16.5850 0
M  V30 644 H  -13.9990 30.3760 15.4600 0
M  V30 645 H  -15.0690 29.4020 16.4950 0
M  V30 646 H  -15.4980 29.6890 14.7910 0
M  V30 647 N  -21.2020 29.7240 14.5200 0
M  V30 648 C  -22.2840 30.6320 14.1000 0 CFG=2
M  V30 649 C  -21.6480 31.8140 13.3820 0
M  V30 650 O  -20.6210 32.3660 13.8160 0
M  V30 651 C  -23.1500 31.1880 15.2380 0
M  V30 652 O  -22.6480 32.4410 15.7030 0
M  V30 653 H  -20.8820 29.0220 13.8680 0
M  V30 654 H  -22.9290 30.1040 13.3970 0
M  V30 655 H  -23.1660 30.4750 16.0620 0
M  V30 656 H  -24.1740 31.3150 14.8870 0
M  V30 657 H  -22.0340 32.2960 16.4280 0
M  V30 658 N  -22.3070 32.2260 12.3100 0
M  V30 659 C  -21.6960 33.1050 11.3610 0 CFG=2
M  V30 660 C  -21.3750 34.4520 11.9750 0
M  V30 661 O  -20.3560 35.0610 11.6250 0
M  V30 662 C  -22.5840 33.2560 10.1590 0
M  V30 663 C  -21.9890 34.0720 9.0390 0
M  V30 664 C  -22.8700 34.0050 7.8150 0
M  V30 665 O  -23.0560 32.8830 7.2980 0
M  V30 666 O  -23.4070 35.0490 7.4020 0 CHG=-1
M  V30 667 H  -23.2560 31.9190 12.1520 0
M  V30 668 H  -20.7600 32.6520 11.0350 0
M  V30 669 H  -23.5320 33.6990 10.4650 0
M  V30 670 H  -22.8530 32.2690 9.7830 0
M  V30 671 H  -20.9990 33.6880 8.7960 0
M  V30 672 H  -21.8910 35.1100 9.3590 0
M  V30 673 N  -22.2150 34.9000 12.9040 0
M  V30 674 C  -22.0730 36.2450 13.3900 0 CFG=2
M  V30 675 C  -20.8760 36.3830 14.3080 0
M  V30 676 O  -20.0160 37.2160 14.0730 0
M  V30 677 C  -23.3670 36.7720 14.0280 0
M  V30 678 C  -23.6360 38.2270 13.6510 0
M  V30 679 C  -23.4410 38.5270 12.1440 0
M  V30 680 O  -22.3240 38.3250 11.5900 0
M  V30 681 O  -24.4090 38.9790 11.4980 0 CHG=-1
M  V30 682 H  -22.9420 34.2970 13.2600 0
M  V30 683 H  -21.8740 36.8720 12.5210 0
M  V30 684 H  -23.2980 36.6860 15.1130 0
M  V30 685 H  -24.2070 36.1540 13.7100 0
M  V30 686 H  -22.9860 38.8780 14.2360 0
M  V30 687 H  -24.6500 38.4950 13.9450 0
M  V30 688 N  -20.8180 35.5420 15.3300 0
M  V30 689 C  -19.6690 35.4760 16.2310 0 CFG=2
M  V30 690 C  -18.3800 35.3380 15.4650 0
M  V30 691 O  -17.4140 36.0240 15.7450 0
M  V30 692 C  -19.7750 34.2370 17.1300 0
M  V30 693 C  -20.8750 34.3390 18.1500 0
M  V30 694 O  -21.2000 35.4820 18.5920 0
M  V30 695 O  -21.3790 33.2520 18.5190 0 CHG=-1
M  V30 696 H  -21.5880 34.9140 15.5120 0
M  V30 697 H  -19.6340 36.3740 16.8480 0
M  V30 698 H  -18.8240 34.0760 17.6380 0
M  V30 699 H  -19.9350 33.3540 16.5110 0
M  V30 700 N  -18.3900 34.4050 14.5190 0
M  V30 701 C  -17.2450 34.0920 13.6460 0 CFG=2
M  V30 702 C  -16.7570 35.2980 12.8530 0
M  V30 703 O  -15.5210 35.5230 12.7240 0
M  V30 704 C  -17.6670 32.9820 12.6860 0
M  V30 705 C  -16.6000 32.5140 11.7690 0
M  V30 706 C  -15.5420 31.7460 12.2490 0
M  V30 707 C  -16.6960 32.7500 10.4050 0
M  V30 708 C  -14.5610 31.2880 11.4070 0
M  V30 709 C  -15.7280 32.2780 9.5450 0
M  V30 710 C  -14.6490 31.5520 10.0520 0
M  V30 711 H  -19.2230 33.8560 14.3600 0
M  V30 712 H  -16.4250 33.7250 14.2640 0
M  V30 713 H  -18.5240 33.3170 12.1020 0
M  V30 714 H  -18.0480 32.1360 13.2590 0
M  V30 715 H  -15.4840 31.5030 13.3000 0
M  V30 716 H  -17.5330 33.3080 10.0110 0
M  V30 717 H  -13.7280 30.7270 11.8040 0
M  V30 718 H  -15.8070 32.4700 8.4860 0
M  V30 719 H  -13.8810 31.1950 9.3810 0
M  V30 720 N  -17.7130 36.0610 12.3150 0
M  V30 721 C  -17.3450 37.1800 11.4880 0 CFG=2
M  V30 722 C  -16.8220 38.2720 12.3770 0
M  V30 723 O  -15.8330 38.9220 12.0320 0
M  V30 724 C  -18.4780 37.6700 10.5860 0 CFG=2
M  V30 725 C  -18.6800 36.6690 9.4430 0
M  V30 726 C  -18.1430 39.0390 10.0050 0
M  V30 727 C  -19.8720 36.9750 8.5660 0
M  V30 728 H  -18.6850 35.8510 12.4890 0
M  V30 729 H  -16.5260 36.8590 10.8440 0
M  V30 730 H  -19.3960 37.7410 11.1680 0
M  V30 731 H  -18.7830 35.6650 9.8550 0
M  V30 732 H  -17.7790 36.6340 8.8290 0
M  V30 733 H  -18.9600 39.3720 9.3650 0
M  V30 734 H  -18.0020 39.7530 10.8160 0
M  V30 735 H  -17.2270 38.9710 9.4180 0
M  V30 736 H  -19.9480 36.2230 7.7810 0
M  V30 737 H  -20.7790 36.9640 9.1690 0
M  V30 738 H  -19.7480 37.9600 8.1150 0
M  V30 739 N  -17.4620 38.4440 13.5290 0
M  V30 740 C  -17.0750 39.4730 14.4800 0 CFG=2
M  V30 741 C  -15.6870 39.1540 15.0440 0
M  V30 742 O  -14.9310 40.0590 15.2990 0
M  V30 743 C  -18.1240 39.5990 15.5990 0
M  V30 744 C  -19.5010 40.2340 15.2310 0
M  V30 745 C  -19.7830 40.5120 13.7320 0
M  V30 746 O  -19.1220 41.4050 13.1280 0
M  V30 747 O  -20.7130 39.8800 13.1570 0 CHG=-1
M  V30 748 H  -18.2440 37.8500 13.7650 0
M  V30 749 H  -17.0200 40.4250 13.9520 0
M  V30 750 H  -17.6910 40.1470 16.4360 0
M  V30 751 H  -18.2910 38.6190 16.0460 0
M  V30 752 H  -19.6320 41.1570 15.7960 0
M  V30 753 H  -20.3010 39.6150 15.6370 0
M  V30 754 N  -15.3480 37.8800 15.2140 0
M  V30 755 C  -14.0110 37.4990 15.6930 0 CFG=2
M  V30 756 C  -12.9290 37.5460 14.5780 0
M  V30 757 O  -11.7650 37.8020 14.8570 0
M  V30 758 C  -14.0250 36.1340 16.3850 0
M  V30 759 C  -14.7750 36.0870 17.7280 0
M  V30 760 C  -14.3120 37.1120 18.7850 0
M  V30 761 O  -13.1850 36.9750 19.3370 0
M  V30 762 O  -15.1000 38.0460 19.1020 0 CHG=-1
M  V30 763 H  -16.0160 37.1490 15.0140 0
M  V30 764 H  -13.7230 38.2330 16.4460 0
M  V30 765 H  -13.0000 35.7950 16.5320 0
M  V30 766 H  -14.4500 35.3920 15.7090 0
M  V30 767 H  -14.7050 35.0830 18.1450 0
M  V30 768 H  -15.8430 36.2130 17.5490 0
M  V30 769 N  -13.3120 37.3070 13.3320 0
M  V30 770 C  -12.3770 37.5470 12.2270 0 CFG=2
M  V30 771 C  -12.0500 39.0420 12.1370 0
M  V30 772 O  -10.9120 39.3910 11.9020 0
M  V30 773 C  -12.9250 37.0460 10.8960 0
M  V30 774 H  -14.2430 36.9620 13.1470 0
M  V30 775 H  -11.4540 37.0090 12.4390 0
M  V30 776 H  -12.2010 37.2440 10.1060 0
M  V30 777 H  -13.1090 35.9730 10.9590 0
M  V30 778 H  -13.8590 37.5610 10.6700 0
M  V30 779 N  -13.0430 39.9040 12.3090 0
M  V30 780 C  -12.8280 41.3660 12.2890 0 CFG=2
M  V30 781 C  -11.9120 41.8380 13.4330 0
M  V30 782 O  -11.0240 42.6380 13.2280 0
M  V30 783 C  -14.1700 42.1120 12.3220 0
M  V30 784 C  -15.0050 42.0050 11.0160 0
M  V30 785 C  -16.3770 42.7110 11.0760 0
M  V30 786 O  -16.7700 43.1850 12.1600 0
M  V30 787 O  -17.0820 42.8150 10.0380 0 CHG=-1
M  V30 788 H  -13.9830 39.5670 12.4590 0
M  V30 789 H  -12.3360 41.6140 11.3490 0
M  V30 790 H  -13.9930 43.1630 12.5530 0
M  V30 791 H  -14.7640 41.7490 13.1610 0
M  V30 792 H  -15.1500 40.9550 10.7650 0
M  V30 793 H  -14.4280 42.4090 10.1850 0
M  V30 794 N  -12.1140 41.3090 14.6300 0
M  V30 795 C  -11.2660 41.6440 15.7790 0 CFG=2
M  V30 796 C  -9.8070 41.2040 15.5330 0
M  V30 797 O  -8.8800 42.0230 15.7040 0
M  V30 798 C  -11.7830 41.0100 17.0900 0
M  V30 799 C  -10.7180 41.1370 18.1880 0
M  V30 800 C  -13.0980 41.6810 17.5240 0
M  V30 801 H  -12.8700 40.6540 14.7720 0
M  V30 802 H  -11.2760 42.7270 15.9010 0
M  V30 803 H  -11.9750 39.9520 16.9130 0
M  V30 804 H  -11.0900 40.6880 19.1090 0
M  V30 805 H  -9.8100 40.6220 17.8740 0
M  V30 806 H  -10.4970 42.1900 18.3600 0
M  V30 807 H  -13.4510 41.2250 18.4490 0
M  V30 808 H  -12.9270 42.7450 17.6870 0
M  V30 809 H  -13.8490 41.5490 16.7450 0
M  V30 810 N  -9.6190 39.9360 15.1350 0
M  V30 811 C  -8.3130 39.4020 14.6780 0 CFG=2
M  V30 812 C  -7.6250 40.2540 13.6010 0
M  V30 813 O  -6.4060 40.4510 13.6280 0
M  V30 814 C  -8.5000 37.9960 14.0800 0
M  V30 815 C  -8.1790 36.8060 14.9650 0
M  V30 816 S  -6.7570 35.8470 14.3160 0
M  V30 817 C  -7.4910 34.9440 12.9820 0
M  V30 818 H  -10.3920 39.2860 15.1370 0
M  V30 819 H  -7.6490 39.3270 15.5380 0
M  V30 820 H  -7.9250 37.9210 13.1570 0
M  V30 821 H  -9.5200 37.8990 13.7060 0
M  V30 822 H  -9.0530 36.1580 15.0330 0
M  V30 823 H  -7.9520 37.1540 15.9730 0
M  V30 824 H  -6.7340 34.3220 12.5040 0
M  V30 825 H  -8.2900 34.3110 13.3680 0
M  V30 826 H  -7.9010 35.6420 12.2530 0
M  V30 827 N  -8.3790 40.6790 12.5900 0
M  V30 828 C  -7.7870 41.4710 11.4840 0 CFG=2
M  V30 829 C  -7.3020 42.8270 11.9780 0
M  V30 830 O  -6.3920 43.3830 11.4070 0
M  V30 831 C  -8.7980 41.6850 10.3830 0
M  V30 832 C  -9.0670 40.4080 9.6450 0
M  V30 833 S  -10.2440 40.6990 8.3520 0
M  V30 834 C  -9.2700 41.7370 7.2340 0
M  V30 835 H  -9.3650 40.4630 12.5710 0
M  V30 836 H  -6.9380 40.9230 11.0770 0
M  V30 837 H  -8.4220 42.4350 9.6860 0
M  V30 838 H  -9.7280 42.0590 10.8120 0
M  V30 839 H  -9.4640 39.6650 10.3370 0
M  V30 840 H  -8.1370 40.0360 9.2140 0
M  V30 841 H  -9.8740 42.0050 6.3670 0
M  V30 842 H  -8.9620 42.6430 7.7560 0
M  V30 843 H  -8.3870 41.1890 6.9050 0
M  V30 844 N  -7.9100 43.3230 13.0520 0
M  V30 845 C  -7.5480 44.5960 13.6670 0 CFG=2
M  V30 846 C  -6.1760 44.4870 14.3760 0
M  V30 847 O  -5.3690 45.3880 14.2310 0
M  V30 848 C  -8.6570 45.0350 14.6370 0
M  V30 849 C  -8.6540 46.5050 15.0430 0
M  V30 850 C  -10.0800 47.0380 15.1270 0
M  V30 851 C  -10.6810 47.1730 13.7260 0
M  V30 852 N  -12.0330 46.5500 13.5920 0 CHG=1
M  V30 853 H  -8.6660 42.8120 13.4850 0
M  V30 854 H  -7.4670 45.3450 12.8790 0
M  V30 855 H  -8.6170 44.4150 15.5330 0
M  V30 856 H  -9.6280 44.7820 14.2120 0
M  V30 857 H  -8.0930 47.0830 14.3090 0
M  V30 858 H  -8.1680 46.6130 16.0130 0
M  V30 859 H  -10.0760 48.0130 15.6150 0
M  V30 860 H  -10.6890 46.3550 15.7190 0
M  V30 861 H  -10.0040 46.7270 12.9980 0
M  V30 862 H  -10.7400 48.2280 13.4580 0
M  V30 863 H  -11.9350 45.5500 13.4910 0
M  V30 864 H  -12.5810 46.7530 14.4160 0
M  V30 865 H  -12.4980 46.9270 12.7780 0
M  V30 866 N  -5.9300 43.3800 15.0920 0
M  V30 867 C  -4.6200 43.0430 15.6870 0 CFG=2
M  V30 868 C  -3.4910 42.8510 14.6450 0
M  V30 869 O  -3.0810 41.7320 14.3060 0
M  V30 870 C  -4.7200 41.8060 16.6430 0
M  V30 871 C  -5.8510 41.8830 17.7150 0
M  V30 872 C  -6.1310 40.5700 18.4330 0
M  V30 873 C  -5.5330 42.9600 18.7380 0
M  V30 874 H  -6.6670 42.7100 15.2540 0
M  V30 875 H  -4.3320 43.8920 16.3050 0
M  V30 876 H  -3.7610 41.6580 17.1410 0
M  V30 877 H  -4.8460 40.9010 16.0490 0
M  V30 878 H  -6.7680 42.1770 17.2030 0
M  V30 879 H  -6.9310 40.7160 19.1590 0
M  V30 880 H  -6.4330 39.8150 17.7070 0
M  V30 881 H  -5.2300 40.2380 18.9480 0
M  V30 882 H  -6.3300 43.0040 19.4800 0
M  V30 883 H  -4.5900 42.7270 19.2310 0
M  V30 884 H  -5.4510 43.9250 18.2360 0
M  V30 885 N  -2.9710 43.9860 14.1960 0
M  V30 886 C  -2.0900 44.0890 13.0290 0 CFG=2
M  V30 887 C  -0.6900 44.5160 13.4820 0
M  V30 888 O  -0.4560 45.6650 13.8520 0
M  V30 889 C  -2.6690 45.1360 12.0960 0
M  V30 890 O  -1.9580 45.1880 10.8970 0
M  V30 891 H  -3.1750 44.8560 14.6670 0
M  V30 892 H  -2.0370 43.1270 12.5200 0
M  V30 893 H  -2.6370 46.1120 12.5800 0
M  V30 894 H  -3.7130 44.8980 11.8880 0
M  V30 895 H  -2.1580 44.3910 10.4180 0
M  V30 896 N  0.2360 43.5830 13.5010 0
M  V30 897 C  1.5700 43.8770 13.9980 0 CFG=2
M  V30 898 C  2.4800 42.9630 13.1850 0
M  V30 899 O  2.1410 41.8140 12.9900 0
M  V30 900 C  1.6030 43.6050 15.5110 0
M  V30 901 C  2.8660 44.0450 16.1710 0
M  V30 902 N  4.0280 43.3170 16.0920 0
M  V30 903 C  3.1820 45.1890 16.8400 0
M  V30 904 C  5.0050 43.9820 16.6830 0
M  V30 905 N  4.5110 45.1120 17.1630 0
M  V30 906 H  0.0230 42.6540 13.1680 0
M  V30 907 H  1.8190 44.9200 13.8020 0
M  V30 908 H  1.4540 42.5400 15.6900 0
M  V30 909 H  0.7550 44.0980 15.9860 0
M  V30 910 H  2.4250 45.9390 17.0160 0
M  V30 911 H  6.0030 43.5700 16.7060 0
M  V30 912 H  4.9470 45.8560 17.6890 0
M  V30 913 N  3.6530 43.4460 12.7330 0
M  V30 914 C  4.5580 42.5900 11.9290 0 CFG=2
M  V30 915 C  5.0950 41.3270 12.6250 0
M  V30 916 O  5.6390 40.4530 11.9560 0
M  V30 917 C  5.7320 43.5260 11.6120 0
M  V30 918 C  5.6480 44.6710 12.5650 0
M  V30 919 C  4.2310 44.7870 12.9920 0
M  V30 920 H  4.0600 42.3080 11.0020 0
M  V30 921 H  5.6350 43.8960 10.5910 0
M  V30 922 H  6.6710 42.9950 11.7650 0
M  V30 923 H  5.9500 45.5880 12.0590 0
M  V30 924 H  6.2720 44.4660 13.4350 0
M  V30 925 H  4.1910 44.9970 14.0610 0
M  V30 926 H  3.7250 45.5240 12.3680 0
M  V30 927 N  4.9520 41.2140 13.9370 0
M  V30 928 C  5.3160 39.9710 14.6440 0 CFG=2
M  V30 929 C  4.1230 39.0300 14.8690 0
M  V30 930 O  4.2400 37.9990 15.5850 0
M  V30 931 C  6.0240 40.2620 15.9680 0
M  V30 932 C  7.3070 41.0530 15.8820 0
M  V30 933 C  8.4080 40.3090 15.1590 0
M  V30 934 C  8.6350 40.9250 13.8220 0
M  V30 935 N  9.7390 41.8860 13.9820 0 CHG=1
M  V30 936 H  4.5870 41.9870 14.4740 0
M  V30 937 H  6.0280 39.4400 14.0120 0
M  V30 938 H  6.2150 39.3230 16.4870 0
M  V30 939 H  5.3330 40.7710 16.6400 0
M  V30 940 H  7.6430 41.3100 16.8860 0
M  V30 941 H  7.1160 41.9990 15.3750 0
M  V30 942 H  8.1190 39.2650 15.0330 0
M  V30 943 H  9.3270 40.3610 15.7430 0
M  V30 944 H  7.7350 41.4550 13.5090 0
M  V30 945 H  8.9280 40.1520 13.1110 0
M  V30 946 H  10.5660 41.4010 14.2990 0
M  V30 947 H  9.9290 42.3310 13.0960 0
M  V30 948 H  9.4790 42.5870 14.6610 0
M  V30 949 N  2.9810 39.3640 14.2720 0
M  V30 950 C  1.8120 38.5000 14.3550 0 CFG=2
M  V30 951 C  1.4660 38.1080 12.9500 0
M  V30 952 O  1.3690 38.9600 12.0700 0
M  V30 953 C  0.6050 39.1930 15.0210 0
M  V30 954 C  0.7850 39.7210 16.4280 0
M  V30 955 C  -0.4890 40.4450 16.8510 0
M  V30 956 C  1.1420 38.6060 17.4090 0
M  V30 957 H  2.9170 40.2270 13.7510 0
M  V30 958 H  2.0680 37.6050 14.9230 0
M  V30 959 H  -0.2510 38.5180 14.9990 0
M  V30 960 H  0.2570 40.0010 14.3770 0
M  V30 961 H  1.6020 40.4430 16.4200 0
M  V30 962 H  -0.3700 40.8300 17.8640 0
M  V30 963 H  -0.6810 41.2730 16.1690 0
M  V30 964 H  -1.3290 39.7500 16.8240 0
M  V30 965 H  1.2630 39.0250 18.4080 0
M  V30 966 H  0.3440 37.8630 17.4220 0
M  V30 967 H  2.0740 38.1320 17.0990 0
M  V30 968 N  1.2750 36.8270 12.7380 0
M  V30 969 C  0.8020 36.3200 11.4510 0 CFG=2
M  V30 970 C  -0.6030 36.8460 11.1800 0
M  V30 971 O  -1.5170 36.5770 11.9550 0
M  V30 972 C  0.7340 34.7920 11.4180 0
M  V30 973 C  0.3150 34.3580 10.0340 0
M  V30 974 C  2.0920 34.1460 11.7540 0
M  V30 975 H  1.4560 36.1600 13.4750 0
M  V30 976 H  1.4710 36.6660 10.6630 0
M  V30 977 H  -0.0100 34.4530 12.1390 0
M  V30 978 H  0.2620 33.2700 9.9950 0
M  V30 979 H  -0.6650 34.7770 9.8030 0
M  V30 980 H  1.0430 34.7120 9.3050 0
M  V30 981 H  1.9970 33.0610 11.7190 0
M  V30 982 H  2.8390 34.4690 11.0290 0
M  V30 983 H  2.4020 34.4510 12.7540 0
M  V30 984 N  -0.7520 37.6130 10.0940 0
M  V30 985 C  -2.0090 38.3190 9.7700 0 CFG=2
M  V30 986 C  -3.1130 37.4360 9.1870 0
M  V30 987 O  -2.8420 36.5470 8.3200 0
M  V30 988 C  -1.7520 39.5000 8.8070 0
M  V30 989 C  -0.8960 40.5920 9.4240 0
M  V30 990 C  -1.5050 41.0920 10.7430 0
M  V30 991 O  -2.6540 41.7200 10.6040 0
M  V30 992 N  -0.9620 40.8860 11.8730 0
M  V30 993 H  0.0160 37.7300 9.4490 0
M  V30 994 H  -2.3910 38.7400 10.7000 0
M  V30 995 H  -2.7050 39.9230 8.4900 0
M  V30 996 H  -1.2700 39.1310 7.9020 0
M  V30 997 H  -0.8110 41.4250 8.7260 0
M  V30 998 H  0.1060 40.2070 9.6100 0
M  V30 999 H  -1.3990 41.2330 12.7150 0
M  V30 1000 H  -0.0930 40.3740 11.9300 0
M  V30 1001 N  -4.3270 37.6740 9.6910 0
M  V30 1002 C  -5.5220 37.1870 9.0600 0 CFG=2
M  V30 1003 C  -5.9430 38.1760 7.9750 0
M  V30 1004 O  -6.2080 39.3720 8.2670 0
M  V30 1005 C  -6.6440 37.0350 10.0990 0
M  V30 1006 C  -7.9800 36.4400 9.5950 0
M  V30 1007 C  -7.9010 34.9630 9.3460 0
M  V30 1008 C  -9.1960 36.7240 10.4750 0
M  V30 1009 H  -4.4250 38.2120 10.5410 0
M  V30 1010 H  -5.3190 36.2180 8.6040 0
M  V30 1011 H  -6.8350 38.0010 10.5660 0
M  V30 1012 H  -6.2790 36.4390 10.9360 0
M  V30 1013 H  -8.1810 36.9050 8.6300 0
M  V30 1014 H  -8.8670 34.6010 8.9940 0
M  V30 1015 H  -7.1400 34.7610 8.5910 0
M  V30 1016 H  -7.6370 34.4520 10.2720 0
M  V30 1017 H  -10.0800 36.2640 10.0330 0
M  V30 1018 H  -9.0300 36.3110 11.4690 0
M  V30 1019 H  -9.3460 37.8010 10.5500 0
M  V30 1020 N  -6.0080 37.6910 6.7350 0
M  V30 1021 C  -6.5070 38.5060 5.6080 0 CFG=2
M  V30 1022 C  -8.0440 38.5000 5.4550 0
M  V30 1023 O  -8.6410 39.4770 4.9560 0
M  V30 1024 C  -5.8740 38.0940 4.2780 0
M  V30 1025 C  -4.3870 38.3800 4.2090 0
M  V30 1026 C  -3.5460 37.5470 3.4970 0
M  V30 1027 C  -3.8130 39.4480 4.8910 0
M  V30 1028 C  -2.1820 37.7760 3.4330 0
M  V30 1029 C  -2.4470 39.6700 4.8450 0
M  V30 1030 C  -1.6420 38.8320 4.0950 0
M  V30 1031 O  -0.2750 39.0350 4.0070 0
M  V30 1032 H  -5.7110 36.7440 6.5480 0
M  V30 1033 H  -6.2080 39.5360 5.8000 0
M  V30 1034 H  -6.3800 38.6090 3.4610 0
M  V30 1035 H  -6.0460 37.0310 4.1090 0
M  V30 1036 H  -3.9490 36.6930 2.9730 0
M  V30 1037 H  -4.4350 40.1180 5.4670 0
M  V30 1038 H  -1.5510 37.1150 2.8570 0
M  V30 1039 H  -2.0150 40.4950 5.3930 0
M  V30 1040 H  0.0200 39.8130 4.4550 0
M  V30 1041 N  -8.6620 37.3860 5.8550 0
M  V30 1042 C  -10.1180 37.2730 5.8470 0
M  V30 1043 C  -10.6010 35.8360 5.9050 0
M  V30 1044 O  -9.8750 34.8890 6.1920 0
M  V30 1045 H  -8.1200 36.5950 6.1740 0
M  V30 1046 H  -10.5140 37.7520 4.9520 0
M  V30 1047 H  -10.5290 37.8270 6.6910 0
M  V30 1048 N  -11.8560 35.6750 5.5610 0
M  V30 1049 C  -12.5810 34.4820 5.8660 0 CFG=2
M  V30 1050 C  -13.4750 34.1920 4.6450 0
M  V30 1051 O  -14.0490 35.1080 4.0610 0
M  V30 1052 C  -13.2490 34.8180 7.2070 0
M  V30 1053 C  -14.7770 34.8590 7.1460 0
M  V30 1054 C  -12.6510 33.9690 8.3120 0
M  V30 1055 H  -12.3410 36.4080 5.0640 0
M  V30 1056 H  -11.8810 33.6580 6.0060 0
M  V30 1057 H  -12.9430 35.8390 7.4320 0
M  V30 1058 H  -15.1730 35.1030 8.1320 0
M  V30 1059 H  -15.0920 35.6180 6.4310 0
M  V30 1060 H  -15.1550 33.8860 6.8330 0
M  V30 1061 H  -13.1310 34.2140 9.2590 0
M  V30 1062 H  -12.8090 32.9140 8.0860 0
M  V30 1063 H  -11.5820 34.1680 8.3850 0
M  V30 1064 N  -13.5080 32.9400 4.2090 0
M  V30 1065 C  -14.3050 32.5500 3.0610 0 CFG=2
M  V30 1066 C  -15.3650 31.5870 3.5570 0
M  V30 1067 O  -15.0590 30.4670 3.9880 0
M  V30 1068 C  -13.4570 31.9260 1.9330 0
M  V30 1069 S  -14.4160 31.5910 0.4120 0
M  V30 1070 H  -12.9680 32.2280 4.6790 0
M  V30 1071 H  -14.8020 33.4370 2.6680 0
M  V30 1072 H  -13.0070 31.0000 2.2890 0
M  V30 1073 H  -12.6240 32.5890 1.6970 0
M  V30 1074 H  -14.6780 32.8770 0.1270 0
M  V30 1075 N  -16.6170 32.0300 3.5460 0
M  V30 1076 C  -17.7030 31.1800 4.0670 0 CFG=2
M  V30 1077 C  -18.9180 30.9880 3.1520 0
M  V30 1078 O  -19.8390 30.2840 3.5060 0
M  V30 1079 C  -18.1230 31.6490 5.4490 0
M  V30 1080 C  -18.9830 32.8980 5.7090 0
M  V30 1081 C  -18.4450 33.6060 6.9610 0
M  V30 1082 C  -19.1030 33.8720 4.5440 0
M  V30 1083 H  -16.8240 32.9490 3.1800 0
M  V30 1084 H  -17.2700 30.1890 4.2040 0
M  V30 1085 H  -17.2350 31.7030 6.0800 0
M  V30 1086 H  -18.5660 30.8070 5.9800 0
M  V30 1087 H  -19.9900 32.5520 5.9440 0
M  V30 1088 H  -19.0430 34.4950 7.1610 0
M  V30 1089 H  -18.5020 32.9300 7.8140 0
M  V30 1090 H  -17.4070 33.8960 6.7960 0
M  V30 1091 H  -19.7300 34.7150 4.8370 0
M  V30 1092 H  -18.1120 34.2360 4.2700 0
M  V30 1093 H  -19.5520 33.3650 3.6900 0
M  V30 1094 N  -18.8890 31.5730 1.9660 0
M  V30 1095 C  -19.9840 31.4580 1.0120 0 CFG=2
M  V30 1096 C  -20.2850 30.0020 0.6530 0
M  V30 1097 O  -21.4580 29.5870 0.5920 0
M  V30 1098 C  -19.6390 32.2390 -0.2630 0
M  V30 1099 C  -20.8160 32.5310 -1.1830 0
M  V30 1100 C  -20.4630 32.3390 -2.6520 0
M  V30 1101 O  -20.4830 33.3500 -3.3990 0
M  V30 1102 O  -20.1540 31.1810 -3.0500 0 CHG=-1
M  V30 1103 H  -18.0880 32.1250 1.6950 0
M  V30 1104 H  -20.8770 31.8960 1.4560 0
M  V30 1105 H  -18.8720 31.7010 -0.8200 0
M  V30 1106 H  -19.1540 33.1770 0.0080 0
M  V30 1107 H  -21.1570 33.5540 -1.0220 0
M  V30 1108 H  -21.6500 31.8790 -0.9220 0
M  V30 1109 N  -19.2230 29.2440 0.4020 0
M  V30 1110 C  -19.3190 27.8370 0.0420 0 CFG=2
M  V30 1111 C  -18.5840 26.9800 1.0810 0
M  V30 1112 O  -17.7480 27.4820 1.8150 0
M  V30 1113 C  -18.7540 27.6130 -1.3730 0
M  V30 1114 C  -17.2330 27.6800 -1.5050 0
M  V30 1115 C  -16.7350 27.4970 -2.9520 0
M  V30 1116 O  -15.5760 27.1370 -3.1880 0
M  V30 1117 N  -17.6100 27.7610 -3.9240 0
M  V30 1118 H  -18.2950 29.6390 0.4560 0
M  V30 1119 H  -20.3710 27.5530 0.0430 0
M  V30 1120 H  -19.2060 28.3300 -2.0590 0
M  V30 1121 H  -19.1070 26.6540 -1.7540 0
M  V30 1122 H  -16.7810 26.9200 -0.8680 0
M  V30 1123 H  -16.8780 28.6350 -1.1190 0
M  V30 1124 H  -17.3360 27.6570 -4.8910 0
M  V30 1125 H  -18.5450 28.0640 -3.6930 0
M  V30 1126 N  -18.9260 25.7020 1.1580 0
M  V30 1127 C  -18.2310 24.7380 2.0070 0 CFG=2
M  V30 1128 C  -17.2260 23.9290 1.1450 0
M  V30 1129 O  -17.4530 23.6800 -0.0700 0
M  V30 1130 C  -19.2420 23.7880 2.6550 0
M  V30 1131 H  -19.7030 25.3530 0.6140 0
M  V30 1132 H  -17.6870 25.2720 2.7870 0
M  V30 1133 H  -18.7160 23.0720 3.2870 0
M  V30 1134 H  -19.9420 24.3610 3.2630 0
M  V30 1135 H  -19.7880 23.2530 1.8790 0
M  V30 1136 N  -16.1250 23.5140 1.7360 0
M  V30 1137 C  -15.6030 23.8190 3.0830 0 CFG=2
M  V30 1138 C  -15.2270 25.3250 3.2510 0
M  V30 1139 O  -14.8140 26.0010 2.2850 0
M  V30 1140 C  -14.3550 22.9090 3.2150 0
M  V30 1141 C  -14.1640 22.2250 1.9200 0
M  V30 1142 C  -15.3700 22.4400 1.0550 0
M  V30 1143 H  -16.3410 23.5390 3.8340 0
M  V30 1144 H  -14.5280 22.1680 3.9950 0
M  V30 1145 H  -13.4810 23.5220 3.4340 0
M  V30 1146 H  -14.0250 21.1570 2.0900 0
M  V30 1147 H  -13.2830 22.6300 1.4210 0
M  V30 1148 H  -15.0520 22.7890 0.0730 0
M  V30 1149 H  -15.9700 21.5300 1.0390 0
M  V30 1150 N  -15.3920 25.8310 4.4610 0
M  V30 1151 C  -15.1350 27.2150 4.7500 0 CFG=2
M  V30 1152 C  -13.6910 27.3360 5.2070 0
M  V30 1153 O  -13.0860 26.3480 5.6910 0
M  V30 1154 C  -16.1760 27.8250 5.7700 0 CFG=2
M  V30 1155 C  -16.1990 27.1290 7.1100 0
M  V30 1156 C  -17.5970 27.7590 5.2130 0
M  V30 1157 C  -17.3440 27.5750 8.0010 0
M  V30 1158 H  -15.7080 25.2400 5.2160 0
M  V30 1159 H  -15.2300 27.7680 3.8150 0
M  V30 1160 H  -15.9210 28.8720 5.9340 0
M  V30 1161 H  -15.2530 27.3000 7.6230 0
M  V30 1162 H  -16.2590 26.0510 6.9570 0
M  V30 1163 H  -18.2920 28.1860 5.9360 0
M  V30 1164 H  -17.6490 28.3250 4.2830 0
M  V30 1165 H  -17.8650 26.7200 5.0210 0
M  V30 1166 H  -17.3000 27.0360 8.9470 0
M  V30 1167 H  -17.2620 28.6460 8.1900 0
M  V30 1168 H  -18.2930 27.3660 7.5070 0
M  V30 1169 N  -13.1080 28.5180 5.0350 0
M  V30 1170 C  -11.7180 28.6960 5.4360 0 CFG=2
M  V30 1171 C  -11.2500 30.0770 5.9410 0
M  V30 1172 O  -11.9300 31.0900 5.7760 0
M  V30 1173 C  -10.8190 28.2690 4.2830 0
M  V30 1174 S  -11.2790 29.1450 2.8070 0
M  V30 1175 H  -13.6270 29.2830 4.6290 0
M  V30 1176 H  -11.5370 27.9920 6.2480 0
M  V30 1177 H  -10.9260 27.1970 4.1180 0
M  V30 1178 H  -9.7810 28.4930 4.5300 0
M  V30 1179 H  -11.1450 30.3770 3.3040 0
M  V30 1180 N  -10.0650 30.0570 6.5500 0
M  V30 1181 C  -9.2910 31.2370 6.9460 0 CFG=2
M  V30 1182 C  -8.1580 31.5070 5.9320 0
M  V30 1183 O  -7.4130 30.5880 5.5510 0
M  V30 1184 C  -8.7220 31.0040 8.3570 0
M  V30 1185 C  -9.7470 30.5070 9.4000 0
M  V30 1186 C  -9.1480 30.2820 10.7880 0
M  V30 1187 C  -10.8720 31.5320 9.4370 0
M  V30 1188 H  -9.6270 29.1750 6.7750 0
M  V30 1189 H  -9.9550 32.1010 6.9720 0
M  V30 1190 H  -8.2580 31.9230 8.7150 0
M  V30 1191 H  -7.8940 30.2960 8.2990 0
M  V30 1192 H  -10.1600 29.5620 9.0490 0
M  V30 1193 H  -9.9260 29.9340 11.4680 0
M  V30 1194 H  -8.3590 29.5320 10.7260 0
M  V30 1195 H  -8.7320 31.2170 11.1610 0
M  V30 1196 H  -11.6230 31.2220 10.1640 0
M  V30 1197 H  -10.4690 32.5040 9.7240 0
M  V30 1198 H  -11.3300 31.6060 8.4510 0
M  V30 1199 N  -8.0640 32.7610 5.4870 0
M  V30 1200 C  -7.0150 33.2140 4.6230 0 CFG=2
M  V30 1201 C  -5.9630 34.0100 5.4360 0
M  V30 1202 O  -6.2730 35.0320 6.0870 0
M  V30 1203 C  -7.5540 34.0290 3.4390 0
M  V30 1204 C  -6.3990 34.3110 2.4730 0
M  V30 1205 C  -8.6350 33.2450 2.6990 0
M  V30 1206 H  -8.7550 33.4460 5.7580 0
M  V30 1207 H  -6.5190 32.3320 4.2170 0
M  V30 1208 H  -7.9670 34.9700 3.8000 0
M  V30 1209 H  -6.7670 34.8900 1.6260 0
M  V30 1210 H  -5.6230 34.8760 2.9890 0
M  V30 1211 H  -5.9850 33.3680 2.1160 0
M  V30 1212 H  -9.0060 33.8380 1.8620 0
M  V30 1213 H  -8.2170 32.3110 2.3240 0
M  V30 1214 H  -9.4570 33.0270 3.3810 0
M  V30 1215 N  -4.7350 33.4800 5.4570 0
M  V30 1216 C  -3.6730 34.0030 6.3130 0 CFG=2
M  V30 1217 C  -2.5070 34.4690 5.4630 0
M  V30 1218 O  -2.3370 34.0650 4.2960 0
M  V30 1219 C  -3.1360 32.9320 7.2790 0
M  V30 1220 C  -4.0250 32.6330 8.4360 0
M  V30 1221 C  -4.7820 31.4630 8.4770 0
M  V30 1222 C  -4.1050 33.5100 9.5110 0
M  V30 1223 C  -5.6030 31.1950 9.5480 0
M  V30 1224 C  -4.9160 33.2350 10.5860 0
M  V30 1225 C  -5.6490 32.0660 10.6290 0
M  V30 1226 H  -4.5160 32.6900 4.8670 0
M  V30 1227 H  -4.0570 34.8450 6.8880 0
M  V30 1228 H  -2.1560 33.2370 7.6470 0
M  V30 1229 H  -2.9410 32.0130 6.7270 0
M  V30 1230 H  -4.7280 30.7570 7.6620 0
M  V30 1231 H  -3.5250 34.4210 9.5080 0
M  V30 1232 H  -6.2140 30.3040 9.5510 0
M  V30 1233 H  -4.9840 33.9370 11.4050 0
M  V30 1234 H  -6.2530 31.8260 11.4910 0
M  V30 1235 N  -1.7010 35.3090 6.0770 0
M  V30 1236 C  -0.3620 35.5900 5.6260 0 CFG=2
M  V30 1237 C  0.4390 34.2950 5.3760 0
M  V30 1238 O  0.5580 33.4190 6.2540 0
M  V30 1239 C  0.3280 36.4570 6.7310 0
M  V30 1240 C  1.7420 36.9140 6.4350 0
M  V30 1241 C  2.3290 37.8230 7.5170 0
M  V30 1242 O  3.5400 38.1480 7.3220 0
M  V30 1243 O  1.6590 38.1800 8.5640 0 CHG=-1
M  V30 1244 H  -2.0130 35.7930 6.9070 0
M  V30 1245 H  -0.4100 36.1640 4.7010 0
M  V30 1246 H  0.3170 35.9110 7.6750 0
M  V30 1247 H  -0.2940 37.3260 6.9460 0
M  V30 1248 H  1.7600 37.4340 5.4770 0
M  V30 1249 H  2.3840 36.0430 6.3060 0
M  V30 1250 N  1.0300 34.1790 4.1840 0
M  V30 1251 C  1.9110 33.0670 3.9180 0 CFG=2
M  V30 1252 C  3.2800 33.2760 4.5580 0
M  V30 1253 O  3.8790 34.3010 4.3700 0
M  V30 1254 C  2.0460 32.8110 2.4250 0
M  V30 1255 C  2.9770 31.6850 2.0980 0
M  V30 1256 C  2.6390 30.4050 2.4140 0
M  V30 1257 C  4.2400 31.9400 1.5380 0
M  V30 1258 C  3.5110 29.3610 2.1230 0
M  V30 1259 C  5.0910 30.9120 1.2420 0
M  V30 1260 C  4.7400 29.6170 1.5320 0
M  V30 1261 H  0.8610 34.8700 3.4670 0
M  V30 1262 H  1.4680 32.1790 4.3670 0
M  V30 1263 H  2.3890 33.7200 1.9320 0
M  V30 1264 H  1.0630 32.6010 2.0040 0
M  V30 1265 H  1.6920 30.2000 2.8920 0
M  V30 1266 H  4.5460 32.9560 1.3360 0
M  V30 1267 H  3.2320 28.3440 2.3570 0
M  V30 1268 H  6.0450 31.1170 0.7780 0
M  V30 1269 H  5.4100 28.8010 1.3050 0
M  V30 1270 N  3.7610 32.2640 5.2920 0
M  V30 1271 C  5.0290 32.3080 5.9960 0 CFG=2
M  V30 1272 C  6.0360 31.3420 5.3550 0
M  V30 1273 O  5.9580 30.1330 5.4790 0
M  V30 1274 C  4.8240 31.9700 7.4790 0
M  V30 1275 C  3.8730 32.9370 8.1920 0
M  V30 1276 S  4.5240 34.5880 8.3280 0
M  V30 1277 C  5.8250 34.3470 9.5190 0
M  V30 1278 H  3.2330 31.4080 5.3800 0
M  V30 1279 H  5.4280 33.3200 5.9240 0
M  V30 1280 H  5.7890 31.9710 7.9870 0
M  V30 1281 H  4.4420 30.9540 7.5690 0
M  V30 1282 H  3.6470 32.5540 9.1870 0
M  V30 1283 H  2.9220 32.9650 7.6620 0
M  V30 1284 H  6.3260 35.2960 9.7080 0
M  V30 1285 H  5.4000 33.9690 10.4500 0
M  V30 1286 H  6.5450 33.6270 9.1310 0
M  V30 1287 N  7.0220 31.9320 4.7290 0
M  V30 1288 C  7.9090 31.2720 3.7820 0 CFG=2
M  V30 1289 C  8.5540 30.0170 4.3550 0
M  V30 1290 O  8.7210 29.0210 3.6570 0
M  V30 1291 C  8.9530 32.3170 3.3950 0
M  V30 1292 C  9.8170 32.0780 2.1810 0
M  V30 1293 C  10.4220 33.3970 1.7110 0
M  V30 1294 O  10.1780 34.4130 2.3960 0
M  V30 1295 O  11.1230 33.4550 0.6740 0 CHG=-1
M  V30 1296 H  7.2090 32.9110 4.8890 0
M  V30 1297 H  7.3370 31.0000 2.8950 0
M  V30 1298 H  9.5940 32.5140 4.2540 0
M  V30 1299 H  8.4660 33.2870 3.2990 0
M  V30 1300 H  9.2110 31.6510 1.3820 0
M  V30 1301 H  10.6170 31.3820 2.4360 0
M  V30 1302 N  8.8850 30.0380 5.6490 0
M  V30 1303 C  9.7170 28.9880 6.2150 0 CFG=2
M  V30 1304 C  9.0440 28.1520 7.2840 0
M  V30 1305 O  9.7250 27.5350 8.1080 0
M  V30 1306 C  10.9980 29.5740 6.7720 0
M  V30 1307 C  11.8090 30.3360 5.7740 0
M  V30 1308 N  12.1130 31.6550 5.6890 0
M  V30 1309 C  12.4380 29.7210 4.7090 0
M  V30 1310 C  12.9240 31.8110 4.5910 0
M  V30 1311 N  13.1050 30.6330 4.0180 0
M  V30 1312 H  8.5580 30.7870 6.2420 0
M  V30 1313 H  9.9920 28.3160 5.4010 0
M  V30 1314 H  11.6050 28.7760 7.1980 0
M  V30 1315 H  10.7610 30.2230 7.6150 0
M  V30 1316 H  11.7210 32.3480 6.4190 0
M  V30 1317 H  12.3400 28.7260 4.5700 0
M  V30 1318 H  13.2740 32.7270 4.3480 0
M  V30 1319 N  7.7140 28.0980 7.2640 0
M  V30 1320 C  7.0070 27.0660 7.9940 0
M  V30 1321 C  6.9860 27.2760 9.4930 0
M  V30 1322 O  7.1600 28.4030 9.9580 0
M  V30 1323 H  7.1880 28.7800 6.7360 0
M  V30 1324 H  7.4510 26.0960 7.7710 0
M  V30 1325 H  5.9830 26.9990 7.6240 0
M  V30 1326 N  6.7550 26.1800 10.2130 0
M  V30 1327 C  6.5740 26.1670 11.6810 0 CFG=2
M  V30 1328 C  7.9430 26.1740 12.3680 0
M  V30 1329 O  8.8430 25.4620 11.9760 0
M  V30 1330 C  5.7470 24.9550 12.0910 0
M  V30 1331 S  5.4460 24.8170 13.8560 0
M  V30 1332 H  6.6940 25.2810 9.7580 0
M  V30 1333 H  6.0350 27.0690 11.9720 0
M  V30 1334 H  6.2360 24.0480 11.7360 0
M  V30 1335 H  4.7940 24.9730 11.5620 0
M  V30 1336 H  4.5360 25.7970 13.9500 0
M  V30 1337 N  8.0770 27.0320 13.3780 0
M  V30 1338 C  9.3170 27.3000 14.1070 0 CFG=2
M  V30 1339 C  9.8670 26.0160 14.7460 0
M  V30 1340 O  11.0870 25.7490 14.7380 0
M  V30 1341 C  9.0000 28.3290 15.1720 0
M  V30 1342 C  10.0900 28.7300 16.1760 0
M  V30 1343 C  11.3050 29.2510 15.4110 0
M  V30 1344 C  9.5060 29.7530 17.1390 0
M  V30 1345 H  7.2800 27.5630 13.6990 0
M  V30 1346 H  10.0590 27.7070 13.4200 0
M  V30 1347 H  8.1120 28.0120 15.7190 0
M  V30 1348 H  8.6100 29.2270 14.6930 0
M  V30 1349 H  10.3850 27.8470 16.7420 0
M  V30 1350 H  12.0840 29.5380 16.1170 0
M  V30 1351 H  11.6830 28.4680 14.7530 0
M  V30 1352 H  11.0160 30.1170 14.8160 0
M  V30 1353 H  10.2680 30.0500 17.8600 0
M  V30 1354 H  9.1730 30.6290 16.5820 0
M  V30 1355 H  8.6590 29.3150 17.6660 0
M  V30 1356 N  8.9730 25.1790 15.2530 0
M  V30 1357 C  9.4170 23.9270 15.8820 0 CFG=2
M  V30 1358 C  10.1960 23.0520 14.8910 0
M  V30 1359 O  11.2940 22.6300 15.1900 0
M  V30 1360 C  8.2290 23.1980 16.4580 0
M  V30 1361 O  7.2990 23.0540 15.4280 0
M  V30 1362 H  7.9890 25.4020 15.2060 0
M  V30 1363 H  10.0870 24.1820 16.7040 0
M  V30 1364 H  7.7920 23.7930 17.2600 0
M  V30 1365 H  8.5410 22.2130 16.8050 0
M  V30 1366 H  6.9070 23.8830 15.1780 0
M  V30 1367 N  9.6360 22.8150 13.6900 0
M  V30 1368 C  10.3580 22.1230 12.6000 0 CFG=2
M  V30 1369 C  11.5620 22.8870 12.0740 0
M  V30 1370 O  12.5610 22.3010 11.7710 0
M  V30 1371 C  9.4340 21.9050 11.3960 0
M  V30 1372 C  8.2690 21.0130 11.7220 0
M  V30 1373 O  8.4560 20.0360 12.5130 0
M  V30 1374 O  7.1920 21.2830 11.1790 0 CHG=-1
M  V30 1375 H  8.6890 23.1130 13.5070 0
M  V30 1376 H  10.6920 21.1510 12.9650 0
M  V30 1377 H  10.0050 21.4710 10.5750 0
M  V30 1378 H  9.0650 22.8690 11.0440 0
M  V30 1379 N  11.4250 24.1940 11.8900 0
M  V30 1380 C  12.5580 25.0360 11.4750 0 CFG=2
M  V30 1381 C  13.7490 24.8000 12.4450 0
M  V30 1382 O  14.8710 24.5690 12.0430 0
M  V30 1383 C  12.1140 26.5190 11.3980 0
M  V30 1384 C  13.1460 27.5230 10.8980 0
M  V30 1385 C  13.1190 27.9750 9.5970 0
M  V30 1386 C  14.0750 28.0840 11.7560 0
M  V30 1387 C  14.0500 28.8970 9.1140 0
M  V30 1388 C  15.0270 28.9990 11.2870 0
M  V30 1389 C  15.0040 29.4000 9.9650 0
M  V30 1390 O  15.9390 30.2760 9.4950 0
M  V30 1391 H  10.5270 24.6330 12.0350 0
M  V30 1392 H  12.8660 24.7220 10.4770 0
M  V30 1393 H  11.7500 26.8360 12.3750 0
M  V30 1394 H  11.2150 26.5930 10.7850 0
M  V30 1395 H  12.3620 27.6170 8.9160 0
M  V30 1396 H  14.0730 27.8180 12.8020 0
M  V30 1397 H  14.0160 29.2080 8.0810 0
M  V30 1398 H  15.7770 29.3900 11.9600 0
M  V30 1399 H  16.1350 30.1340 8.5780 0
M  V30 1400 N  13.4890 24.8340 13.7360 0
M  V30 1401 C  14.5540 24.6780 14.7430 0 CFG=2
M  V30 1402 C  15.1400 23.2950 14.7580 0
M  V30 1403 O  16.3840 23.1580 14.7600 0
M  V30 1404 C  14.0110 24.9720 16.1500 0
M  V30 1405 C  13.6950 26.4340 16.3670 0
M  V30 1406 C  12.8070 26.5550 17.6060 0
M  V30 1407 C  15.0050 27.2530 16.4610 0
M  V30 1408 H  12.5410 24.9700 14.0570 0
M  V30 1409 H  15.3490 25.3910 14.5210 0
M  V30 1410 H  14.7370 24.6440 16.8940 0
M  V30 1411 H  13.1130 24.3780 16.3230 0
M  V30 1412 H  13.1300 26.7920 15.5070 0
M  V30 1413 H  12.5670 27.6040 17.7810 0
M  V30 1414 H  11.8860 25.9940 17.4500 0
M  V30 1415 H  13.3340 26.1550 18.4720 0
M  V30 1416 H  14.7670 28.3050 16.6170 0
M  V30 1417 H  15.6030 26.8890 17.2960 0
M  V30 1418 H  15.5700 27.1430 15.5350 0
M  V30 1419 N  14.2560 22.2820 14.6780 0
M  V30 1420 C  14.6570 20.8790 14.7950 0 CFG=2
M  V30 1421 C  15.4650 20.3840 13.5990 0
M  V30 1422 O  16.4550 19.7600 13.7540 0
M  V30 1423 C  13.4480 19.9840 15.0000 0
M  V30 1424 C  12.7790 20.1150 16.3610 0
M  V30 1425 C  11.4330 19.4340 16.2920 0
M  V30 1426 N  10.6370 19.4510 17.5120 0
M  V30 1427 C  9.3220 19.2890 17.4720 0
M  V30 1428 N  8.7300 19.1550 16.2880 0
M  V30 1429 N  8.5950 19.2810 18.5790 0 CHG=1
M  V30 1430 H  13.2760 22.4770 14.5330 0
M  V30 1431 H  15.2880 20.7890 15.6790 0
M  V30 1432 H  13.7370 18.9450 14.8380 0
M  V30 1433 H  12.7160 20.1820 14.2170 0
M  V30 1434 H  12.6400 21.1700 16.5970 0
M  V30 1435 H  13.3950 19.6270 17.1160 0
M  V30 1436 H  11.5680 18.4020 15.9660 0
M  V30 1437 H  10.8520 19.8680 15.4780 0
M  V30 1438 H  11.1020 19.5900 18.3970 0
M  V30 1439 H  7.7290 19.0310 16.2360 0
M  V30 1440 H  9.2810 19.1780 15.4420 0
M  V30 1441 H  7.5940 19.1560 18.5250 0
M  V30 1442 H  9.0420 19.4000 19.4770 0
M  V30 1443 N  15.0430 20.7110 12.3970 0
M  V30 1444 C  15.7860 20.2540 11.2460 0 CFG=2
M  V30 1445 C  17.1650 20.8950 11.1280 0
M  V30 1446 O  18.0470 20.3820 10.4070 0
M  V30 1447 C  14.9860 20.4990 9.9730 0 CFG=2
M  V30 1448 O  14.7060 21.9040 9.8630 0
M  V30 1449 C  13.6560 19.6780 9.9860 0
M  V30 1450 H  14.2110 21.2740 12.2890 0
M  V30 1451 H  15.9270 19.1780 11.3480 0
M  V30 1452 H  15.5840 20.1900 9.1160 0
M  V30 1453 H  14.0390 22.1450 10.4980 0
M  V30 1454 H  13.1020 19.8690 9.0670 0
M  V30 1455 H  13.8860 18.6150 10.0570 0
M  V30 1456 H  13.0520 19.9780 10.8420 0
M  V30 1457 N  17.3420 22.0640 11.7540 0
M  V30 1458 C  18.5400 22.8490 11.5360 0 CFG=2
M  V30 1459 C  19.3890 22.9480 12.8090 0
M  V30 1460 O  20.2540 23.7830 12.9330 0
M  V30 1461 C  18.1600 24.2140 10.9880 0
M  V30 1462 C  17.5960 24.1840 9.5870 0
M  V30 1463 C  17.1260 25.5410 9.1450 0
M  V30 1464 O  17.8450 26.2360 8.4410 0
M  V30 1465 N  15.9250 25.9550 9.6050 0
M  V30 1466 H  16.6360 22.4100 12.3880 0
M  V30 1467 H  19.1360 22.3410 10.7780 0
M  V30 1468 H  19.0320 24.8680 11.0130 0
M  V30 1469 H  17.4400 24.6840 11.6580 0
M  V30 1470 H  16.7640 23.4810 9.5460 0
M  V30 1471 H  18.3580 23.8220 8.8970 0
M  V30 1472 H  15.5660 26.8590 9.3360 0
M  V30 1473 H  15.3870 25.3590 10.2180 0
M  V30 1474 N  19.1620 22.0290 13.7310 0
M  V30 1475 C  19.9390 21.9490 14.9440 0 CFG=2
M  V30 1476 C  21.4490 21.9630 14.6560 0
M  V30 1477 O  21.9050 21.2960 13.7280 0
M  V30 1478 C  19.5570 20.6640 15.6360 0
M  V30 1479 C  20.1810 20.4510 16.9760 0
M  V30 1480 C  19.3530 19.3860 17.6910 0
M  V30 1481 N  17.9570 19.8550 17.8640 0
M  V30 1482 C  16.9740 19.1230 18.3950 0
M  V30 1483 N  17.2090 17.8800 18.8020 0
M  V30 1484 N  15.7530 19.6140 18.5200 0 CHG=1
M  V30 1485 H  18.4250 21.3520 13.5980 0
M  V30 1486 H  19.6880 22.7920 15.5880 0
M  V30 1487 H  19.7980 19.8210 14.9880 0
M  V30 1488 H  18.4730 20.6150 15.7310 0
M  V30 1489 H  20.1450 21.3800 17.5440 0
M  V30 1490 H  21.2020 20.0910 16.8480 0
M  V30 1491 H  19.7900 19.1810 18.6670 0
M  V30 1492 H  19.3570 18.4680 17.1030 0
M  V30 1493 H  17.7710 20.7970 17.5480 0
M  V30 1494 H  16.4630 17.3300 19.2030 0
M  V30 1495 H  18.1340 17.4850 18.7100 0
M  V30 1496 H  15.0200 19.0480 18.9230 0
M  V30 1497 H  15.5530 20.5540 18.2110 0
M  V30 1498 N  22.2090 22.7010 15.4660 0
M  V30 1499 C  23.6260 22.9590 15.2070 0
M  V30 1500 C  23.9840 24.1390 14.2770 0
M  V30 1501 O  25.1680 24.4300 14.1050 0
M  V30 1502 H  21.8100 23.1100 16.2990 0
M  V30 1503 H  24.0900 22.0490 14.8260 0
M  V30 1504 H  24.1460 23.0820 16.1570 0
M  V30 1505 N  23.0040 24.8590 13.7060 0
M  V30 1506 C  23.3340 25.8910 12.6710 0 CFG=2
M  V30 1507 C  22.9310 27.2990 13.0820 0
M  V30 1508 O  22.8540 28.1760 12.2380 0
M  V30 1509 C  22.6160 25.5650 11.3330 0
M  V30 1510 C  22.7970 24.1790 10.7500 0
M  V30 1511 C  21.9140 23.9790 9.4970 0
M  V30 1512 C  24.2980 23.9950 10.4550 0
M  V30 1513 H  22.0430 24.7060 13.9740 0
M  V30 1514 H  24.4110 25.8760 12.4990 0
M  V30 1515 H  22.8990 26.3060 10.5860 0
M  V30 1516 H  21.5510 25.7710 11.4400 0
M  V30 1517 H  22.5000 23.4470 11.5010 0
M  V30 1518 H  22.0660 22.9740 9.1010 0
M  V30 1519 H  20.8650 24.1080 9.7660 0
M  V30 1520 H  22.1870 24.7130 8.7380 0
M  V30 1521 H  24.4670 23.0050 10.0330 0
M  V30 1522 H  24.6240 24.7540 9.7440 0
M  V30 1523 H  24.8650 24.0970 11.3800 0
M  V30 1524 N  22.5970 27.4910 14.3600 0
M  V30 1525 C  22.1900 28.8050 14.8400 0 CFG=2
M  V30 1526 C  23.2190 29.3460 15.8070 0
M  V30 1527 O  23.6240 28.6360 16.6830 0
M  V30 1528 C  20.8000 28.7900 15.5200 0
M  V30 1529 C  19.7140 28.2120 14.6630 0
M  V30 1530 C  19.1820 28.9480 13.6170 0
M  V30 1531 C  19.2220 26.9230 14.9030 0
M  V30 1532 C  18.2030 28.3960 12.7930 0
M  V30 1533 C  18.2390 26.3690 14.0840 0
M  V30 1534 C  17.7280 27.1120 13.0430 0
M  V30 1535 H  22.6230 26.7190 15.0110 0
M  V30 1536 H  22.1420 29.4790 13.9850 0
M  V30 1537 H  20.5280 29.8050 15.8120 0
M  V30 1538 H  20.8600 28.2310 16.4540 0
M  V30 1539 H  19.5260 29.9560 13.4360 0
M  V30 1540 H  19.6040 26.3440 15.7310 0
M  V30 1541 H  17.8140 28.9650 11.9610 0
M  V30 1542 H  17.8850 25.3650 14.2680 0
M  V30 1543 H  16.9530 26.6920 12.4190 0
M  V30 1544 N  23.6270 30.6090 15.6290 0
M  V30 1545 C  24.3100 31.3630 16.7150 0 CFG=2
M  V30 1546 C  23.3310 31.6570 17.8670 0
M  V30 1547 O  22.1230 31.8720 17.6530 0
M  V30 1548 C  24.8950 32.6500 16.1660 0
M  V30 1549 H  23.4740 31.0690 14.7430 0
M  V30 1550 H  25.1250 30.7500 17.1010 0
M  V30 1551 H  25.3920 33.1940 16.9680 0
M  V30 1552 H  25.6160 32.4170 15.3830 0
M  V30 1553 H  24.0960 33.2650 15.7520 0
M  V30 1554 N  23.8370 31.6410 19.0940 0
M  V30 1555 C  23.0600 32.1260 20.2650 0 CFG=2
M  V30 1556 C  22.3710 33.4670 19.9780 0
M  V30 1557 O  21.2480 33.6780 20.3780 0
M  V30 1558 C  23.9880 32.2720 21.4740 0
M  V30 1559 H  24.7720 31.2920 19.2500 0
M  V30 1560 H  22.2950 31.3870 20.5030 0
M  V30 1561 H  23.4150 32.6280 22.3310 0
M  V30 1562 H  24.4320 31.3060 21.7110 0
M  V30 1563 H  24.7770 32.9880 21.2430 0
M  V30 1564 N  23.0570 34.3780 19.2850 0
M  V30 1565 C  22.4990 35.7150 18.9730 0 CFG=2
M  V30 1566 C  21.2380 35.5940 18.1140 0
M  V30 1567 O  20.2400 36.3040 18.3320 0
M  V30 1568 C  23.5570 36.5720 18.2710 0
M  V30 1569 C  24.7150 37.0200 19.1820 0
M  V30 1570 C  25.9050 36.0450 19.2390 0
M  V30 1571 O  25.7270 34.8150 18.9750 0
M  V30 1572 O  27.0470 36.5360 19.5200 0 CHG=-1
M  V30 1573 H  23.9870 34.1660 18.9540 0
M  V30 1574 H  22.2300 36.2020 19.9110 0
M  V30 1575 H  23.0790 37.4500 17.8350 0
M  V30 1576 H  23.9580 36.0230 17.4190 0
M  V30 1577 H  24.3360 37.1870 20.1910 0
M  V30 1578 H  25.0670 38.0010 18.8630 0
M  V30 1579 N  21.2680 34.6210 17.1930 0
M  V30 1580 C  20.1600 34.3500 16.3000 0 CFG=2
M  V30 1581 C  18.9820 33.7780 17.0680 0
M  V30 1582 O  17.8240 34.1610 16.8570 0
M  V30 1583 C  20.5890 33.4310 15.1750 0 CFG=2
M  V30 1584 O  21.6120 34.0860 14.4380 0
M  V30 1585 C  19.4220 33.1040 14.2430 0
M  V30 1586 H  22.0880 34.0390 17.1000 0
M  V30 1587 H  19.8450 35.2960 15.8590 0
M  V30 1588 H  20.9840 32.5070 15.5960 0
M  V30 1589 H  21.7540 33.6170 13.6300 0
M  V30 1590 H  19.7660 32.4430 13.4470 0
M  V30 1591 H  18.6320 32.6100 14.8090 0
M  V30 1592 H  19.0350 34.0250 13.8070 0
M  V30 1593 N  19.2770 32.9210 18.0220 0
M  V30 1594 C  18.2200 32.3650 18.8760 0 CFG=2
M  V30 1595 C  17.6470 33.4290 19.7730 0
M  V30 1596 O  16.4730 33.4210 20.0670 0
M  V30 1597 C  18.7810 31.2170 19.6920 0
M  V30 1598 C  19.2900 30.0430 18.8500 0
M  V30 1599 C  20.0570 29.0240 19.6980 0
M  V30 1600 C  18.1340 29.3960 18.1460 0
M  V30 1601 H  20.2360 32.6410 18.1710 0
M  V30 1602 H  17.4230 31.9820 18.2380 0
M  V30 1603 H  18.0190 30.8600 20.3850 0
M  V30 1604 H  19.5870 31.5840 20.3260 0
M  V30 1605 H  19.9710 30.4360 18.0950 0
M  V30 1606 H  20.4010 28.2080 19.0630 0
M  V30 1607 H  20.9160 29.5090 20.1620 0
M  V30 1608 H  19.4010 28.6280 20.4730 0
M  V30 1609 H  18.4940 28.5600 17.5470 0
M  V30 1610 H  17.4170 29.0320 18.8830 0
M  V30 1611 H  17.6490 30.1250 17.4980 0
M  V30 1612 N  18.4620 34.3810 20.2210 0
M  V30 1613 C  17.9100 35.4030 21.1020 0 CFG=2
M  V30 1614 C  16.9940 36.3550 20.3160 0
M  V30 1615 O  15.9060 36.7480 20.8290 0
M  V30 1616 C  19.0160 36.1890 21.8200 0
M  V30 1617 C  18.6270 37.4340 22.6230 0
M  V30 1618 C  17.5980 37.1660 23.7080 0
M  V30 1619 C  19.8880 37.9820 23.2610 0
M  V30 1620 H  19.4350 34.3820 19.9500 0
M  V30 1621 H  17.3060 34.9040 21.8600 0
M  V30 1622 H  19.7880 36.4570 21.0980 0
M  V30 1623 H  19.5760 35.5100 22.4630 0
M  V30 1624 H  18.2280 38.1810 21.9380 0
M  V30 1625 H  17.3730 38.0940 24.2340 0
M  V30 1626 H  16.6860 36.7750 23.2560 0
M  V30 1627 H  17.9940 36.4360 24.4140 0
M  V30 1628 H  19.6440 38.8720 23.8420 0
M  V30 1629 H  20.3220 37.2280 23.9180 0
M  V30 1630 H  20.6060 38.2420 22.4840 0
M  V30 1631 N  17.4020 36.6770 19.0910 0
M  V30 1632 C  16.5700 37.4940 18.1770 0
M  V30 1633 C  15.1860 36.8740 17.8760 0
M  V30 1634 O  14.2030 37.5680 17.6380 0
M  V30 1635 H  18.3030 36.3630 18.7600 0
M  V30 1636 H  17.1080 37.6500 17.2420 0
M  V30 1637 H  16.4370 38.4890 18.6020 0
M  V30 1638 N  15.1050 35.5450 17.9020 0
M  V30 1639 C  13.8610 34.8430 17.6730 0 CFG=2
M  V30 1640 C  12.9380 35.0980 18.8620 0
M  V30 1641 O  11.7820 35.3550 18.6810 0
M  V30 1642 C  14.1180 33.3210 17.4960 0
M  V30 1643 C  14.7720 32.8800 16.1610 0
M  V30 1644 S  14.9660 31.0660 16.1720 0
M  V30 1645 C  15.6600 30.7030 14.5720 0
M  V30 1646 H  15.9300 34.9920 18.0860 0
M  V30 1647 H  13.3930 35.2330 16.7690 0
M  V30 1648 H  13.1820 32.7800 17.6330 0
M  V30 1649 H  14.7230 32.9600 18.3280 0
M  V30 1650 H  15.7510 33.3490 16.0630 0
M  V30 1651 H  14.1300 33.1710 15.3290 0
M  V30 1652 H  15.8160 29.6280 14.4790 0
M  V30 1653 H  14.9750 31.0390 13.7940 0
M  V30 1654 H  16.6140 31.2190 14.4640 0
M  V30 1655 N  13.4620 34.9760 20.0750 0
M  V30 1656 C  12.7170 35.3200 21.3280 0 CFG=2
M  V30 1657 C  12.3180 36.7750 21.4030 0
M  V30 1658 O  11.2370 37.1000 21.9080 0
M  V30 1659 C  13.5320 34.9560 22.5740 0
M  V30 1660 S  14.0460 33.2080 22.6570 0
M  V30 1661 H  14.4070 34.6370 20.1850 0
M  V30 1662 H  11.8040 34.7250 21.3440 0
M  V30 1663 H  12.9580 35.2050 23.4670 0
M  V30 1664 H  14.4130 35.5940 22.6290 0
M  V30 1665 H  14.8670 33.2280 21.5960 0
M  V30 1666 N  13.1720 37.6620 20.8940 0
M  V30 1667 C  12.7780 39.0850 20.7520 0 CFG=2
M  V30 1668 C  11.5560 39.2900 19.7930 0
M  V30 1669 O  10.6170 40.0390 20.1270 0
M  V30 1670 C  13.9320 40.0020 20.3220 0
M  V30 1671 C  13.8680 41.2740 21.1550 0
M  V30 1672 C  14.7110 41.0300 22.3870 0
M  V30 1673 C  14.3680 42.5160 20.4280 0
M  V30 1674 H  14.0930 37.3670 20.6030 0
M  V30 1675 H  12.4610 39.4220 21.7390 0
M  V30 1676 H  13.8220 40.2530 19.2670 0
M  V30 1677 H  14.8820 39.4980 20.5010 0
M  V30 1678 H  12.8360 41.4400 21.4630 0
M  V30 1679 H  14.6960 41.9180 23.0190 0
M  V30 1680 H  14.3070 40.1840 22.9420 0
M  V30 1681 H  15.7360 40.8130 22.0890 0
M  V30 1682 H  14.2900 43.3800 21.0880 0
M  V30 1683 H  15.4080 42.3730 20.1370 0
M  V30 1684 H  13.7620 42.6840 19.5370 0
M  V30 1685 N  11.5740 38.6380 18.6250 0
M  V30 1686 C  10.4110 38.6570 17.7210 0 CFG=2
M  V30 1687 C  9.1060 38.2370 18.4100 0
M  V30 1688 O  8.1280 38.9690 18.3750 0
M  V30 1689 C  10.6220 37.7980 16.4710 0
M  V30 1690 C  11.7480 38.3360 15.5340 0
M  V30 1691 O  12.3010 39.4230 15.7930 0
M  V30 1692 O  12.1190 37.6260 14.5650 0 CHG=-1
M  V30 1693 H  12.3960 38.1210 18.3490 0
M  V30 1694 H  10.2810 39.6860 17.3860 0
M  V30 1695 H  9.6870 37.7340 15.9130 0
M  V30 1696 H  10.8570 36.7760 16.7690 0
M  V30 1697 N  9.0900 37.0830 19.0530 0
M  V30 1698 C  7.8940 36.6550 19.7830 0 CFG=2
M  V30 1699 C  7.4790 37.6280 20.8890 0
M  V30 1700 O  6.3100 37.9630 21.0700 0
M  V30 1701 C  8.1590 35.2630 20.3340 0
M  V30 1702 C  7.0190 34.8150 21.2290 0
M  V30 1703 C  8.3370 34.2900 19.1800 0
M  V30 1704 H  9.9070 36.4890 19.0450 0
M  V30 1705 H  7.0720 36.5850 19.0700 0
M  V30 1706 H  9.0780 35.2860 20.9190 0
M  V30 1707 H  7.2280 33.8170 21.6120 0
M  V30 1708 H  6.9160 35.5100 22.0620 0
M  V30 1709 H  6.0920 34.7970 20.6550 0
M  V30 1710 H  8.5270 33.2910 19.5720 0
M  V30 1711 H  7.4320 34.2750 18.5730 0
M  V30 1712 H  9.1810 34.6050 18.5650 0
M  V30 1713 N  8.4680 38.1190 21.6280 0
M  V30 1714 C  8.1830 38.9420 22.7560 0 CFG=2
M  V30 1715 C  7.4890 40.2460 22.3030 0
M  V30 1716 O  6.5420 40.7530 22.9510 0
M  V30 1717 C  9.5000 39.2200 23.4690 0
M  V30 1718 S  9.2400 39.9510 25.0410 0
M  V30 1719 H  9.4270 37.9100 21.3910 0
M  V30 1720 H  7.5200 38.4020 23.4320 0
M  V30 1721 H  10.1100 39.8840 22.8560 0
M  V30 1722 H  10.0520 38.2880 23.5890 0
M  V30 1723 H  8.3970 40.9000 24.6140 0
M  V30 1724 N  7.9400 40.7420 21.1570 0
M  V30 1725 C  7.3860 41.9460 20.5250 0 CFG=2
M  V30 1726 C  5.9400 41.7570 20.0540 0
M  V30 1727 O  5.0730 42.6470 20.2690 0
M  V30 1728 C  8.3050 42.3180 19.3850 0
M  V30 1729 C  8.0730 43.6540 18.7600 0
M  V30 1730 C  9.0120 43.8560 17.5640 0
M  V30 1731 O  10.1310 43.2440 17.5630 0
M  V30 1732 O  8.6160 44.6230 16.6390 0 CHG=-1
M  V30 1733 H  8.7020 40.2870 20.6760 0
M  V30 1734 H  7.4040 42.7540 21.2560 0
M  V30 1735 H  8.2540 41.5470 18.6160 0
M  V30 1736 H  9.3400 42.2540 19.7220 0
M  V30 1737 H  8.2520 44.4360 19.4980 0
M  V30 1738 H  7.0380 43.7230 18.4250 0
M  V30 1739 N  5.6410 40.6050 19.4300 0
M  V30 1740 C  4.2390 40.3100 19.1120 0
M  V30 1741 C  3.3970 40.2130 20.3750 0
M  V30 1742 O  2.3360 40.8190 20.5000 0
M  V30 1743 H  6.3760 39.9560 19.1880 0
M  V30 1744 H  4.1810 39.3700 18.5640 0
M  V30 1745 H  3.8400 41.0960 18.4690 0
M  V30 1746 N  3.8880 39.4520 21.3490 0
M  V30 1747 C  3.2030 39.2730 22.6390 0 CFG=2
M  V30 1748 C  2.9990 40.5770 23.4520 0
M  V30 1749 O  1.9890 40.7360 24.1190 0
M  V30 1750 C  3.9770 38.2680 23.4840 0
M  V30 1751 C  3.9290 36.8320 23.0240 0
M  V30 1752 S  2.2690 36.2350 22.6790 0
M  V30 1753 C  1.4170 36.5870 24.2590 0
M  V30 1754 H  4.7660 38.9690 21.2190 0
M  V30 1755 H  2.2190 38.8500 22.4370 0
M  V30 1756 H  3.6330 38.3270 24.5160 0
M  V30 1757 H  5.0160 38.5870 23.5590 0
M  V30 1758 H  4.3930 36.1960 23.7780 0
M  V30 1759 H  4.5470 36.7170 22.1340 0
M  V30 1760 H  0.3770 36.2680 24.1900 0
M  V30 1761 H  1.9100 36.0470 25.0670 0
M  V30 1762 H  1.4560 37.6580 24.4620 0
M  V30 1763 N  3.9510 41.4970 23.3800 0
M  V30 1764 C  3.8520 42.7900 24.0730 0 CFG=2
M  V30 1765 C  2.7690 43.6660 23.4150 0
M  V30 1766 O  2.0870 44.4300 24.0690 0
M  V30 1767 C  5.1630 43.5230 24.0020 0
M  V30 1768 H  4.7820 41.3210 22.8340 0
M  V30 1769 H  3.5910 42.6200 25.1180 0
M  V30 1770 H  5.0750 44.4780 24.5190 0
M  V30 1771 H  5.9410 42.9240 24.4760 0
M  V30 1772 H  5.4260 43.6980 22.9590 0
M  V30 1773 N  2.5880 43.4810 22.1230 0
M  V30 1774 C  1.4460 44.0530 21.4400 0 CFG=2
M  V30 1775 C  0.0650 43.4620 21.8580 0
M  V30 1776 O  -0.8950 44.2180 22.1590 0
M  V30 1777 C  1.7020 44.0080 19.9450 0
M  V30 1778 C  0.5580 44.5110 19.1580 0
M  V30 1779 C  -0.4890 43.6400 18.8180 0
M  V30 1780 C  0.5010 45.8430 18.7160 0
M  V30 1781 C  -1.5680 44.0740 18.0690 0
M  V30 1782 C  -0.5920 46.2880 18.0010 0
M  V30 1783 C  -1.6240 45.3980 17.6690 0
M  V30 1784 O  -2.7350 45.8060 16.9410 0
M  V30 1785 H  3.2510 42.9330 21.5930 0
M  V30 1786 H  1.4230 45.1070 21.7140 0
M  V30 1787 H  1.9240 42.9830 19.6460 0
M  V30 1788 H  2.5890 44.5960 19.7110 0
M  V30 1789 H  -0.4610 42.6100 19.1410 0
M  V30 1790 H  1.3140 46.5200 18.9340 0
M  V30 1791 H  -2.3540 43.3820 17.8020 0
M  V30 1792 H  -0.6540 47.3230 17.6980 0
M  V30 1793 H  -2.7140 46.7340 16.7570 0
M  V30 1794 N  -0.0260 42.1430 21.9670 0
M  V30 1795 C  -1.2480 41.5170 22.4480 0 CFG=2
M  V30 1796 C  -1.5770 41.9240 23.8750 0
M  V30 1797 O  -2.7390 42.2250 24.1510 0
M  V30 1798 C  -1.1160 40.0110 22.3540 0
M  V30 1799 C  -1.1060 39.5480 20.9050 0
M  V30 1800 C  -0.9700 38.0330 20.9740 0
M  V30 1801 C  -2.4070 39.9570 20.1590 0
M  V30 1802 H  0.7600 41.5610 21.7150 0
M  V30 1803 H  -2.0690 41.8310 21.8040 0
M  V30 1804 H  -1.9480 39.5410 22.8790 0
M  V30 1805 H  -0.1940 39.6960 22.8420 0
M  V30 1806 H  -0.2420 39.9700 20.3920 0
M  V30 1807 H  -0.9550 37.6230 19.9640 0
M  V30 1808 H  -0.0430 37.7740 21.4840 0
M  V30 1809 H  -1.8150 37.6170 21.5220 0
M  V30 1810 H  -2.3600 39.6080 19.1280 0
M  V30 1811 H  -3.2670 39.5080 20.6560 0
M  V30 1812 H  -2.5070 41.0420 20.1710 0
M  V30 1813 N  -0.5490 41.8720 24.7480 0
M  V30 1814 C  -0.5970 42.2780 26.1590 0 CFG=2
M  V30 1815 C  -1.2090 43.6850 26.2210 0
M  V30 1816 O  -2.2100 43.9040 26.8760 0
M  V30 1817 C  0.8130 42.2800 26.7780 0
M  V30 1818 C  0.8710 42.7800 28.2270 0
M  V30 1819 C  2.2730 42.7370 28.8610 0
M  V30 1820 O  2.5710 41.7660 29.6360 0
M  V30 1821 O  3.0850 43.6630 28.5630 0 CHG=-1
M  V30 1822 H  0.3520 41.5310 24.4470 0
M  V30 1823 H  -1.2310 41.5850 26.7120 0
M  V30 1824 H  1.4760 42.8860 26.1600 0
M  V30 1825 H  1.2320 41.2760 26.7250 0
M  V30 1826 H  0.1810 42.1970 28.8380 0
M  V30 1827 H  0.4840 43.7980 28.2750 0
M  V30 1828 N  -0.6410 44.6030 25.4610 0
M  V30 1829 C  -1.1350 45.9910 25.4090 0 CFG=2
M  V30 1830 C  -2.5850 46.1440 24.8750 0
M  V30 1831 O  -3.2720 47.0380 25.3030 0
M  V30 1832 C  -0.1010 46.8690 24.6590 0
M  V30 1833 C  -0.5360 48.2610 24.2510 0
M  V30 1834 C  -0.7680 49.1850 25.4240 0
M  V30 1835 O  -0.3960 48.8060 26.5530 0
M  V30 1836 O  -1.3130 50.3000 25.2100 0 CHG=-1
M  V30 1837 H  0.1580 44.3640 24.8910 0
M  V30 1838 H  -1.1490 46.3490 26.4390 0
M  V30 1839 H  0.2520 46.3320 23.7780 0
M  V30 1840 H  0.8090 46.9370 25.2540 0
M  V30 1841 H  -1.4460 48.1970 23.6550 0
M  V30 1842 H  0.2160 48.6960 23.5920 0
M  V30 1843 N  -3.0550 45.2650 23.9820 0
M  V30 1844 C  -4.4440 45.2610 23.5380 0 CFG=2
M  V30 1845 C  -5.3890 44.4920 24.4760 0
M  V30 1846 O  -6.5830 44.3420 24.1880 0
M  V30 1847 C  -4.5300 44.6520 22.1460 0
M  V30 1848 H  -2.4400 44.5680 23.5870 0
M  V30 1849 H  -4.7870 46.2940 23.4800 0
M  V30 1850 H  -5.5680 44.6490 21.8140 0
M  V30 1851 H  -3.9290 45.2410 21.4540 0
M  V30 1852 H  -4.1550 43.6290 22.1730 0
M  V30 1853 N  -4.8600 44.0360 25.6010 0
M  V30 1854 C  -5.5790 43.1830 26.5620 0 CFG=2
M  V30 1855 C  -5.9620 41.8590 25.9270 0
M  V30 1856 O  -7.0350 41.3440 26.2310 0
M  V30 1857 C  -6.8250 43.8500 27.1400 0
M  V30 1858 O  -6.4460 44.8540 28.0500 0
M  V30 1859 H  -3.9080 44.2710 25.8440 0
M  V30 1860 H  -4.9020 42.9700 27.3890 0
M  V30 1861 H  -7.4320 43.1050 27.6540 0
M  V30 1862 H  -7.4070 44.2940 26.3320 0
M  V30 1863 H  -5.8520 45.4380 27.5930 0
M  V30 1864 N  -5.0940 41.3140 25.0680 0
M  V30 1865 C  -5.3930 40.0220 24.4620 0 CFG=2
M  V30 1866 C  -4.5200 38.9470 25.0620 0
M  V30 1867 O  -3.2990 39.0610 25.0740 0
M  V30 1868 C  -5.2920 39.9720 22.9140 0
M  V30 1869 C  -5.6200 38.5570 22.4210 0
M  V30 1870 C  -6.2400 40.9650 22.2670 0
M  V30 1871 H  -4.2370 41.7980 24.8420 0
M  V30 1872 H  -6.4230 39.7790 24.7220 0
M  V30 1873 H  -4.2720 40.2190 22.6200 0
M  V30 1874 H  -5.5480 38.5250 21.3340 0
M  V30 1875 H  -4.9130 37.8490 22.8520 0
M  V30 1876 H  -6.6320 38.2910 22.7260 0
M  V30 1877 H  -6.1450 40.9060 21.1830 0
M  V30 1878 H  -7.2650 40.7310 22.5550 0
M  V30 1879 H  -5.9920 41.9740 22.5980 0
M  V30 1880 N  -5.1810 37.9070 25.5670 0
M  V30 1881 C  -4.5130 36.7500 26.1530 0 CFG=2
M  V30 1882 C  -4.4220 35.6690 25.0750 0
M  V30 1883 O  -5.4060 35.2960 24.4420 0
M  V30 1884 C  -5.2250 36.2210 27.4220 0 CFG=2
M  V30 1885 C  -5.3110 37.3580 28.4640 0
M  V30 1886 C  -4.4360 35.0650 28.0020 0
M  V30 1887 C  -6.4150 37.2520 29.4930 0
M  V30 1888 H  -6.1900 37.8950 25.5550 0
M  V30 1889 H  -3.5000 37.0440 26.4280 0
M  V30 1890 H  -6.2300 35.8850 27.1640 0
M  V30 1891 H  -5.3930 38.3140 27.9470 0
M  V30 1892 H  -4.3520 37.4490 28.9750 0
M  V30 1893 H  -4.9380 34.6930 28.8940 0
M  V30 1894 H  -4.3670 34.2650 27.2640 0
M  V30 1895 H  -3.4340 35.4040 28.2640 0
M  V30 1896 H  -6.3690 38.1080 30.1660 0
M  V30 1897 H  -7.3820 37.2380 28.9890 0
M  V30 1898 H  -6.2920 36.3330 30.0660 0
M  V30 1899 N  -3.2130 35.1810 24.8690 0
M  V30 1900 C  -2.9910 34.1220 23.9060 0 CFG=2
M  V30 1901 C  -3.5650 32.7330 24.3900 0
M  V30 1902 O  -4.3980 32.1140 23.7070 0
M  V30 1903 C  -1.5040 34.1030 23.5700 0
M  V30 1904 C  -1.1940 33.2620 22.3810 0
M  V30 1905 N  -1.4990 31.9240 22.3290 0
M  V30 1906 C  -0.6370 33.5680 21.1890 0
M  V30 1907 C  -1.1330 31.4320 21.1710 0
M  V30 1908 N  -0.5850 32.4020 20.4640 0
M  V30 1909 H  -2.4260 35.5450 25.3860 0
M  V30 1910 H  -3.5260 34.3950 22.9960 0
M  V30 1911 H  -0.9430 33.7350 24.4290 0
M  V30 1912 H  -1.1590 35.1210 23.3930 0
M  V30 1913 H  -0.3360 34.5830 20.9780 0
M  V30 1914 H  -1.3060 30.3890 20.9480 0
M  V30 1915 H  -0.1690 32.3980 19.5430 0
M  V30 1916 N  -3.1110 32.2640 25.5420 0
M  V30 1917 C  -3.5420 30.9880 26.1800 0 CFG=2
M  V30 1918 C  -2.9220 29.7120 25.6630 0
M  V30 1919 O  -3.1340 28.6710 26.2120 0
M  V30 1920 C  -5.0430 30.7810 26.1580 0
M  V30 1921 C  -5.7790 31.9420 26.7310 0
M  V30 1922 C  -7.2540 31.6350 26.8920 0
M  V30 1923 N  -7.8580 32.9210 27.1320 0
M  V30 1924 C  -8.9770 33.1540 27.7780 0
M  V30 1925 N  -9.3570 34.4310 27.8900 0
M  V30 1926 N  -9.7060 32.1430 28.2910 0 CHG=1
M  V30 1927 H  -2.4160 32.7830 26.0600 0
M  V30 1928 H  -3.2600 31.0610 27.2310 0
M  V30 1929 H  -5.2930 29.8810 26.7190 0
M  V30 1930 H  -5.3710 30.6150 25.1320 0
M  V30 1931 H  -5.6580 32.8070 26.0780 0
M  V30 1932 H  -5.3540 32.1980 27.7010 0
M  V30 1933 H  -7.3970 31.0010 27.7670 0
M  V30 1934 H  -7.6410 31.2230 25.9600 0
M  V30 1935 H  -7.3290 33.6900 26.7450 0
M  V30 1936 H  -10.2100 34.6630 28.3780 0
M  V30 1937 H  -8.7900 35.1630 27.4870 0
M  V30 1938 H  -10.5650 32.3400 28.7850 0
M  V30 1939 H  -9.3940 31.1890 28.1820 0
M  V30 1940 N  -2.1650 29.7710 24.5910 0
M  V30 1941 C  -1.5440 28.5710 24.0980 0 CFG=2
M  V30 1942 C  -0.2950 28.9900 23.3830 0
M  V30 1943 O  -0.0560 28.6100 22.2540 0
M  V30 1944 C  -2.5220 27.8530 23.1690 0
M  V30 1945 C  -2.0630 26.4790 22.7440 0
M  V30 1946 O  -1.2350 25.7990 23.4370 0
M  V30 1947 O  -2.5680 26.0850 21.6720 0 CHG=-1
M  V30 1948 H  -2.0240 30.6530 24.1210 0
M  V30 1949 H  -1.2880 27.9200 24.9340 0
M  V30 1950 H  -2.6960 28.4650 22.2840 0
M  V30 1951 H  -3.4930 27.7740 23.6580 0
M  V30 1952 N  0.5220 29.8000 24.0200 0
M  V30 1953 C  1.7640 30.1840 23.3760 0 CFG=2
M  V30 1954 C  2.7860 29.0310 23.4290 0
M  V30 1955 O  2.9970 28.4270 24.4790 0
M  V30 1956 C  2.3240 31.4480 24.0090 0
M  V30 1957 C  3.6490 32.0190 23.4890 0
M  V30 1958 C  3.6550 32.3930 22.0040 0
M  V30 1959 C  3.9540 33.2340 24.3390 0
M  V30 1960 H  0.2780 30.1420 24.9390 0
M  V30 1961 H  1.5500 30.3980 22.3290 0
M  V30 1962 H  2.3990 31.3020 25.0870 0
M  V30 1963 H  1.5630 32.2280 23.9780 0
M  V30 1964 H  4.4300 31.2790 23.6580 0
M  V30 1965 H  4.6340 32.7870 21.7310 0
M  V30 1966 H  3.4410 31.5070 21.4050 0
M  V30 1967 H  2.8940 33.1500 21.8160 0
M  V30 1968 H  4.8910 33.6820 24.0100 0
M  V30 1969 H  3.1490 33.9610 24.2380 0
M  V30 1970 H  4.0420 32.9340 25.3840 0
M  V30 1971 N  3.4470 28.7580 22.3060 0
M  V30 1972 C  4.4140 27.6270 22.2000 0 CFG=2
M  V30 1973 C  5.1140 27.7190 20.8600 0
M  V30 1974 O  4.5880 28.3670 20.0040 0
M  V30 1975 C  3.7000 26.3160 22.2990 0
M  V30 1976 H  3.3030 29.3260 21.4840 0
M  V30 1977 H  5.1500 27.7020 23.0010 0
M  V30 1978 H  4.4210 25.5020 22.2200 0
M  V30 1979 H  3.1850 26.2530 23.2580 0
M  V30 1980 H  2.9730 26.2360 21.4910 0
M  V30 1981 N  6.2670 27.0660 20.6740 0
M  V30 1982 C  7.0250 27.1350 19.4120 0 CFG=2
M  V30 1983 C  6.2110 26.6220 18.2240 0
M  V30 1984 O  6.2550 27.2100 17.1430 0
M  V30 1985 C  8.3300 26.3660 19.5200 0
M  V30 1986 H  6.6510 26.4970 21.4150 0
M  V30 1987 H  7.2680 28.1810 19.2250 0
M  V30 1988 H  8.8710 26.4320 18.5760 0
M  V30 1989 H  8.9380 26.7930 20.3180 0
M  V30 1990 H  8.1190 25.3210 19.7450 0
M  V30 1991 N  5.4470 25.5460 18.4410 0
M  V30 1992 C  4.5080 24.9940 17.4380 0 CFG=2
M  V30 1993 C  3.4560 25.9940 16.9060 0
M  V30 1994 O  2.8410 25.7490 15.8250 0
M  V30 1995 C  3.7870 23.7410 17.9920 0
M  V30 1996 C  2.5870 23.9850 18.9080 0
M  V30 1997 C  2.0330 22.6910 19.5270 0
M  V30 1998 N  1.9300 22.8780 20.9690 0
M  V30 1999 C  0.9900 23.5710 21.6050 0
M  V30 2000 N  -0.0440 24.0960 20.9510 0
M  V30 2001 N  1.0740 23.6970 22.9340 0 CHG=1
M  V30 2002 H  5.4930 25.0650 19.3270 0
M  V30 2003 H  5.1030 24.6700 16.5840 0
M  V30 2004 H  4.5100 23.1100 18.5090 0
M  V30 2005 H  3.4800 23.1060 17.1610 0
M  V30 2006 H  1.7980 24.4840 18.3460 0
M  V30 2007 H  2.8730 24.6740 19.7030 0
M  V30 2008 H  2.7150 21.8670 19.3160 0
M  V30 2009 H  1.0450 22.4860 19.1160 0
M  V30 2010 H  2.6620 22.4210 21.4940 0
M  V30 2011 H  -0.7470 24.6190 21.4530 0
M  V30 2012 H  -0.1250 23.9710 19.9520 0
M  V30 2013 H  0.3720 24.2190 23.4380 0
M  V30 2014 H  1.8410 23.2700 23.4340 0
M  V30 2015 N  3.1790 27.0600 17.6770 0
M  V30 2016 C  2.2040 28.0850 17.2510 0 CFG=2
M  V30 2017 C  2.8540 29.3040 16.6260 0
M  V30 2018 O  2.1690 30.2590 16.3070 0
M  V30 2019 C  1.2800 28.4900 18.3930 0
M  V30 2020 C  0.0630 27.5830 18.4950 0
M  V30 2021 O  -0.3680 26.9980 17.5030 0
M  V30 2022 N  -0.4950 27.4620 19.6900 0
M  V30 2023 H  3.6410 27.1730 18.5680 0
M  V30 2024 H  1.5790 27.6290 16.4840 0
M  V30 2025 H  0.9530 29.5200 18.2460 0
M  V30 2026 H  1.8320 28.4640 19.3320 0
M  V30 2027 H  -1.3050 26.8720 19.8120 0
M  V30 2028 H  -0.1100 27.9610 20.4800 0
M  V30 2029 N  4.1740 29.2630 16.4490 0
M  V30 2030 C  4.9040 30.3220 15.7750 0 CFG=2
M  V30 2031 C  5.3990 29.8710 14.4150 0
M  V30 2032 O  5.6720 28.6570 14.1950 0
M  V30 2033 C  6.1120 30.6860 16.5850 0
M  V30 2034 S  5.6840 31.3670 18.1750 0
M  V30 2035 H  4.7050 28.4740 16.7890 0
M  V30 2036 H  4.2620 31.1950 15.6610 0
M  V30 2037 H  6.7150 31.4060 16.0330 0
M  V30 2038 H  6.7340 29.8020 16.7250 0
M  V30 2039 H  5.0280 30.2910 18.6240 0
M  V30 2040 N  5.5500 30.8610 13.5280 0
M  V30 2041 C  5.9040 30.6200 12.1270 0 CFG=2
M  V30 2042 C  7.0530 31.5210 11.7280 0
M  V30 2043 O  7.2960 32.5530 12.3460 0
M  V30 2044 C  4.7130 30.8420 11.2220 0
M  V30 2045 C  3.6920 29.7110 11.1760 0
M  V30 2046 C  2.3010 30.2610 10.8500 0
M  V30 2047 C  4.0440 28.5890 10.1930 0
M  V30 2048 H  5.4190 31.8200 13.8150 0
M  V30 2049 H  6.2270 29.5830 12.0250 0
M  V30 2050 H  5.0630 31.0510 10.2110 0
M  V30 2051 H  4.2130 31.7670 11.5060 0
M  V30 2052 H  3.6450 29.2710 12.1730 0
M  V30 2053 H  1.5830 29.4410 10.8210 0
M  V30 2054 H  2.0030 30.9770 11.6160 0
M  V30 2055 H  2.3240 30.7560 9.8790 0
M  V30 2056 H  3.2680 27.8240 10.2210 0
M  V30 2057 H  4.1140 28.9980 9.1850 0
M  V30 2058 H  5.0000 28.1470 10.4730 0
M  V30 2059 N  7.7890 31.0790 10.7270 0
M  V30 2060 C  9.0180 31.7490 10.2590 0 CFG=2
M  V30 2061 C  8.8350 32.3120 8.8780 0
M  V30 2062 O  8.3560 31.6280 7.9340 0
M  V30 2063 C  10.1840 30.7780 10.2450 0
M  V30 2064 C  11.5060 31.5030 9.9500 0
M  V30 2065 C  10.2150 30.0610 11.6020 0
M  V30 2066 H  7.5210 30.2380 10.2350 0
M  V30 2067 H  9.2520 32.5660 10.9410 0
M  V30 2068 H  10.0110 30.0380 9.4640 0
M  V30 2069 H  12.3230 30.7820 9.9470 0
M  V30 2070 H  11.4460 31.9880 8.9760 0
M  V30 2071 H  11.6880 32.2540 10.7190 0
M  V30 2072 H  11.0450 29.3540 11.6210 0
M  V30 2073 H  10.3430 30.7940 12.3980 0
M  V30 2074 H  9.2780 29.5240 11.7510 0
M  V30 2075 N  9.2020 33.5740 8.7460 0
M  V30 2076 C  8.9310 34.2940 7.5050 0
M  V30 2077 C  10.1450 34.7430 6.7500 0
M  V30 2078 O  11.2310 34.2030 6.9190 0
M  V30 2079 H  9.6720 34.0450 9.5060 0
M  V30 2080 H  8.3010 35.1580 7.7200 0
M  V30 2081 H  8.3110 33.6750 6.8570 0
M  V30 2082 N  9.9230 35.7730 5.9280 0
M  V30 2083 C  10.9450 36.4870 5.1790 0 CFG=2
M  V30 2084 C  12.0890 36.9770 6.0610 0
M  V30 2085 O  11.8880 37.5490 7.1510 0
M  V30 2086 C  10.3180 37.7110 4.4990 0
M  V30 2087 C  9.5840 37.4200 3.2030 0
M  V30 2088 C  10.4690 37.5870 1.9820 0
M  V30 2089 O  10.3650 36.7630 1.0420 0
M  V30 2090 O  11.2650 38.5570 1.9610 0 CHG=-1
M  V30 2091 H  8.9820 36.1150 5.7900 0
M  V30 2092 H  11.3480 35.8250 4.4120 0
M  V30 2093 H  11.0920 38.4570 4.3160 0
M  V30 2094 H  9.6390 38.2020 5.1960 0
M  V30 2095 H  8.7220 38.0830 3.1180 0
M  V30 2096 H  9.1900 36.4040 3.2290 0
M  V30 2097 N  13.3070 36.7540 5.5810 0
M  V30 2098 C  14.5130 37.0740 6.3570 0 CFG=2
M  V30 2099 C  14.5210 36.4290 7.7200 0
M  V30 2100 O  15.1230 36.9600 8.6500 0
M  V30 2101 C  14.6870 38.5830 6.4790 0
M  V30 2102 C  14.8060 39.2450 5.1270 0
M  V30 2103 O  15.4510 38.5650 4.1860 0
M  V30 2104 N  14.2850 40.3340 4.9170 0
M  V30 2105 H  13.4210 36.3550 4.6610 0
M  V30 2106 H  15.3710 36.6880 5.8060 0
M  V30 2107 H  15.5790 38.7990 7.0680 0
M  V30 2108 H  13.8360 39.0040 7.0160 0
M  V30 2109 H  14.3710 40.7670 4.0090 0
M  V30 2110 H  13.7710 40.7980 5.6520 0
M  V30 2111 N  13.8470 35.2820 7.8100 0
M  V30 2112 C  13.7530 34.4700 9.0530 0 CFG=2
M  V30 2113 C  13.1780 35.1600 10.2920 0
M  V30 2114 O  13.5390 34.8390 11.4230 0
M  V30 2115 C  15.1060 33.8650 9.3700 0
M  V30 2116 C  15.5450 32.9770 8.2240 0
M  V30 2117 C  16.0640 33.7840 7.0610 0
M  V30 2118 O  16.9100 34.6830 7.2360 0
M  V30 2119 N  15.5660 33.4730 5.8660 0
M  V30 2120 H  13.3610 34.9170 7.0030 0
M  V30 2121 H  13.0870 33.6370 8.8270 0
M  V30 2122 H  15.0340 33.2730 10.2820 0
M  V30 2123 H  15.8360 34.6620 9.5110 0
M  V30 2124 H  14.7040 32.3660 7.8950 0
M  V30 2125 H  16.3240 32.2970 8.5700 0
M  V30 2126 H  15.8710 33.9760 5.0450 0
M  V30 2127 H  14.8820 32.7350 5.7800 0
M  V30 2128 N  12.2870 36.1120 10.0600 0
M  V30 2129 C  11.5460 36.7680 11.1430 0 CFG=2
M  V30 2130 C  10.6620 35.6740 11.7130 0
M  V30 2131 O  10.2510 34.7930 10.9760 0
M  V30 2132 C  10.7270 37.9570 10.5920 0
M  V30 2133 C  9.6260 37.4880 9.6090 0
M  V30 2134 C  10.1400 38.7580 11.7210 0
M  V30 2135 H  12.0990 36.4080 9.1130 0
M  V30 2136 H  12.2400 37.1180 11.9070 0
M  V30 2137 H  11.4090 38.6060 10.0420 0
M  V30 2138 H  9.0720 38.3520 9.2430 0
M  V30 2139 H  10.0860 36.9690 8.7680 0
M  V30 2140 H  8.9440 36.8110 10.1230 0
M  V30 2141 H  9.5660 39.5920 11.3160 0
M  V30 2142 H  9.4850 38.1220 12.3160 0
M  V30 2143 H  10.9430 39.1420 12.3500 0
M  V30 2144 N  10.4020 35.7140 13.0080 0
M  V30 2145 C  9.4780 34.7730 13.6530 0 CFG=2
M  V30 2146 C  8.1580 35.5130 13.9470 0
M  V30 2147 O  8.1380 36.6750 14.4140 0
M  V30 2148 C  10.0560 34.2470 14.9990 0 CFG=2
M  V30 2149 C  11.4720 33.6890 14.8500 0
M  V30 2150 C  9.1380 33.1950 15.6430 0
M  V30 2151 C  11.6440 32.6180 13.8240 0
M  V30 2152 H  10.8450 36.4090 13.5910 0
M  V30 2153 H  9.2860 33.9330 12.9850 0
M  V30 2154 H  10.1100 35.0940 15.6830 0
M  V30 2155 H  11.8170 33.3210 15.8160 0
M  V30 2156 H  12.1600 34.5070 14.6350 0
M  V30 2157 H  9.5780 32.8540 16.5800 0
M  V30 2158 H  8.1610 33.6360 15.8390 0
M  V30 2159 H  9.0250 32.3490 14.9660 0
M  V30 2160 H  12.6850 32.2970 13.8040 0
M  V30 2161 H  11.0070 31.7690 14.0730 0
M  V30 2162 H  11.3640 33.0050 12.8440 0
M  V30 2163 N  7.0390 34.8670 13.6800 0
M  V30 2164 C  5.7750 35.4910 14.0310 0 CFG=2
M  V30 2165 C  4.8870 34.5550 14.8090 0
M  V30 2166 O  4.9840 33.3450 14.6450 0
M  V30 2167 C  5.0750 35.9860 12.8070 0
M  V30 2168 C  5.9130 36.9650 12.0200 0
M  V30 2169 C  5.1290 37.5020 10.8450 0
M  V30 2170 C  6.0300 38.1960 9.8480 0
M  V30 2171 N  5.2760 39.2810 9.1910 0 CHG=1
M  V30 2172 H  7.0730 33.9570 13.2420 0
M  V30 2173 H  5.9910 36.3520 14.6640 0
M  V30 2174 H  4.1360 36.4600 13.0930 0
M  V30 2175 H  4.8150 35.1390 12.1720 0
M  V30 2176 H  6.8120 36.4660 11.6580 0
M  V30 2177 H  6.2100 37.7910 12.6660 0
M  V30 2178 H  4.3750 38.2030 11.2020 0
M  V30 2179 H  4.6070 36.6820 10.3520 0
M  V30 2180 H  6.3620 37.4790 9.0970 0
M  V30 2181 H  6.8910 38.6160 10.3670 0
M  V30 2182 H  4.9640 39.9430 9.8860 0
M  V30 2183 H  5.8710 39.7490 8.5230 0
M  V30 2184 H  4.4750 38.8930 8.7130 0
M  V30 2185 N  4.0660 35.1370 15.6810 0
M  V30 2186 C  3.1830 34.4180 16.5770 0 CFG=2
M  V30 2187 C  1.8550 34.2490 15.8820 0
M  V30 2188 O  1.3150 35.1710 15.2420 0
M  V30 2189 C  2.9390 35.2300 17.9000 0
M  V30 2190 C  2.0020 34.4940 18.8610 0
M  V30 2191 C  4.2460 35.5550 18.5770 0
M  V30 2192 H  4.0310 36.1440 15.7480 0
M  V30 2193 H  3.6070 33.4410 16.8120 0
M  V30 2194 H  2.4620 36.1720 17.6290 0
M  V30 2195 H  1.8620 35.0910 19.7610 0
M  V30 2196 H  1.0390 34.3330 18.3770 0
M  V30 2197 H  2.4390 33.5310 19.1280 0
M  V30 2198 H  4.0530 36.1170 19.4910 0
M  V30 2199 H  4.7670 34.6300 18.8240 0
M  V30 2200 H  4.8640 36.1520 17.9080 0
M  V30 2201 N  1.2880 33.0860 16.0520 0
M  V30 2202 C  -0.0250 32.7920 15.5250 0 CFG=2
M  V30 2203 C  -0.9170 32.1890 16.6040 0
M  V30 2204 O  -0.5340 32.1380 17.7850 0
M  V30 2205 C  0.1250 31.8240 14.3640 0
M  V30 2206 O  -1.0610 31.8830 13.5770 0
M  V30 2207 H  1.7690 32.3600 16.5640 0
M  V30 2208 H  -0.4790 33.7150 15.1630 0
M  V30 2209 H  0.2560 30.8130 14.7490 0
M  V30 2210 H  0.9790 32.1180 13.7550 0
M  V30 2211 H  -1.3180 32.7990 13.4060 0
M  V30 2212 N  -2.1090 31.7400 16.2000 0
M  V30 2213 C  -3.0760 31.0910 17.0960 0 CFG=2
M  V30 2214 C  -3.5660 31.9610 18.2410 0
M  V30 2215 O  -3.8580 31.4530 19.3120 0
M  V30 2216 C  -2.4880 29.7850 17.6800 0
M  V30 2217 C  -3.5500 28.8170 18.1700 0
M  V30 2218 O  -4.6330 28.7590 17.5350 0
M  V30 2219 O  -3.2820 28.0820 19.1750 0 CHG=-1
M  V30 2220 H  -2.3850 31.8380 15.2340 0
M  V30 2221 H  -3.9450 30.8190 16.4970 0
M  V30 2222 H  -1.8130 30.0270 18.5000 0
M  V30 2223 H  -1.8730 29.2960 16.9240 0
M  V30 2224 N  -3.6700 33.2620 18.0280 0
M  V30 2225 C  -4.1860 34.1140 19.0840 0 CFG=2
M  V30 2226 C  -5.6560 34.4920 18.8760 0
M  V30 2227 O  -6.2070 35.2610 19.6520 0
M  V30 2228 C  -3.3160 35.3660 19.2360 0
M  V30 2229 C  -3.1900 36.1610 17.9940 0
M  V30 2230 C  -4.0880 37.1840 17.7260 0
M  V30 2231 C  -2.1950 35.8650 17.0620 0
M  V30 2232 C  -3.9750 37.9370 16.5770 0
M  V30 2233 C  -2.0850 36.6030 15.9200 0
M  V30 2234 C  -2.9890 37.6340 15.6620 0
M  V30 2235 H  -3.3920 33.6520 17.1390 0
M  V30 2236 H  -4.1200 33.5550 20.0170 0
M  V30 2237 H  -2.3230 35.0770 19.5820 0
M  V30 2238 H  -3.7230 35.9950 20.0280 0
M  V30 2239 H  -4.8850 37.3990 18.4220 0
M  V30 2240 H  -1.5100 35.0500 17.2440 0
M  V30 2241 H  -4.6570 38.7550 16.3980 0
M  V30 2242 H  -1.2960 36.3900 15.2140 0
M  V30 2243 H  -2.9150 38.1960 14.7420 0
M  V30 2244 N  -6.2730 33.9930 17.8110 0
M  V30 2245 C  -7.7020 34.1840 17.6170 0
M  V30 2246 C  -8.2380 32.9670 16.9270 0
M  V30 2247 O  -7.4430 32.1030 16.5010 0
M  V30 2248 H  -5.7500 33.4730 17.1220 0
M  V30 2249 H  -7.8690 35.0600 16.9890 0
M  V30 2250 H  -8.1880 34.2960 18.5860 0
M  V30 2251 N  -9.5620 32.8820 16.8130 0
M  V30 2252 C  -10.1960 31.7710 16.1170 0 CFG=2
M  V30 2253 C  -9.7080 30.3860 16.6550 0
M  V30 2254 O  -9.5600 29.4050 15.8980 0
M  V30 2255 C  -9.9390 31.8810 14.5880 0
M  V30 2256 C  -10.2690 33.2120 13.8990 0
M  V30 2257 S  -11.9710 33.5610 13.3210 0
M  V30 2258 C  -12.9240 32.7010 14.5650 0
M  V30 2259 H  -10.1500 33.5980 17.2140 0
M  V30 2260 H  -11.2710 31.8370 16.2840 0
M  V30 2261 H  -10.4660 31.0740 14.0780 0
M  V30 2262 H  -8.9020 31.6190 14.3810 0
M  V30 2263 H  -9.5770 33.3610 13.0700 0
M  V30 2264 H  -9.9380 34.0320 14.5360 0
M  V30 2265 H  -13.9870 32.8170 14.3540 0
M  V30 2266 H  -12.6660 31.6420 14.5530 0
M  V30 2267 H  -12.7010 33.1180 15.5470 0
M  V30 2268 N  -9.4820 30.3030 17.9670 0
M  V30 2269 C  -8.8700 29.1020 18.5760 0 CFG=2
M  V30 2270 C  -9.8430 27.8900 18.6560 0
M  V30 2271 O  -9.4070 26.7540 18.8790 0
M  V30 2272 C  -8.2330 29.4510 19.9510 0 CFG=2
M  V30 2273 O  -9.2390 29.9430 20.8540 0
M  V30 2274 C  -7.1610 30.5430 19.7710 0
M  V30 2275 H  -9.7310 31.0720 18.5720 0
M  V30 2276 H  -8.0520 28.8030 17.9210 0
M  V30 2277 H  -7.7730 28.5580 20.3740 0
M  V30 2278 H  -8.7420 30.2050 21.6210 0
M  V30 2279 H  -6.7200 30.7820 20.7390 0
M  V30 2280 H  -6.3840 30.1820 19.0970 0
M  V30 2281 H  -7.6200 31.4380 19.3510 0
M  V30 2282 N  -11.1380 28.1420 18.4430 0
M  V30 2283 C  -12.1590 27.0920 18.2360 0 CFG=2
M  V30 2284 C  -12.0700 26.5510 16.8000 0
M  V30 2285 O  -11.8350 25.3590 16.5740 0
M  V30 2286 C  -13.5750 27.6700 18.4580 0
M  V30 2287 C  -13.9300 27.9850 19.9130 0
M  V30 2288 C  -12.7170 28.4260 20.7360 0
M  V30 2289 N  -13.0420 28.8080 22.1130 0
M  V30 2290 C  -13.3000 30.0530 22.5330 0
M  V30 2291 N  -13.5730 30.2630 23.8180 0
M  V30 2292 N  -13.3040 31.0930 21.6940 0 CHG=1
M  V30 2293 H  -11.4680 29.0960 18.4160 0
M  V30 2294 H  -11.9870 26.2780 18.9400 0
M  V30 2295 H  -12.2170 27.2370 15.9790 0
M  V30 2296 H  -14.3140 26.9820 18.0480 0
M  V30 2297 H  -13.6950 28.5700 17.8550 0
M  V30 2298 H  -14.3800 27.1060 20.3740 0
M  V30 2299 H  -14.6890 28.7670 19.9400 0
M  V30 2300 H  -12.2250 29.2600 20.2360 0
M  V30 2301 H  -11.9770 27.6250 20.7480 0
M  V30 2302 H  -13.0640 28.0390 22.7680 0
M  V30 2303 H  -13.7680 31.1980 24.1460 0
M  V30 2304 H  -13.5840 29.4880 24.4660 0
M  V30 2305 H  -13.5010 32.0210 22.0410 0
M  V30 2306 H  -13.1090 30.9510 20.7130 0
M  V30 2307 N  -5.1730 19.1750 26.4940 0
M  V30 2308 C  -4.5850 20.2290 27.3520 0 CFG=2
M  V30 2309 C  -3.0270 20.1840 27.4060 0
M  V30 2310 O  -2.4450 19.1720 27.8340 0
M  V30 2311 C  -5.1500 20.1590 28.7830 0
M  V30 2312 C  -4.8890 21.4100 29.6100 0
M  V30 2313 C  -3.6220 21.6530 30.1790 0
M  V30 2314 C  -5.9040 22.3400 29.8360 0
M  V30 2315 C  -3.3780 22.7940 30.9320 0
M  V30 2316 C  -5.6620 23.4710 30.5950 0
M  V30 2317 C  -4.3960 23.6980 31.1350 0
M  V30 2318 H  -6.1800 19.2580 26.5010 0
M  V30 2319 H  -4.8340 19.2810 25.5490 0
M  V30 2320 H  -4.8710 21.1930 26.9320 0
M  V30 2321 H  -4.7320 19.2930 29.2950 0
M  V30 2322 H  -6.2230 19.9730 28.7380 0
M  V30 2323 H  -2.8190 20.9460 30.0320 0
M  V30 2324 H  -6.8860 22.1800 29.4180 0
M  V30 2325 H  -2.3980 22.9640 31.3520 0
M  V30 2326 H  -6.4550 24.1820 30.7720 0
M  V30 2327 H  -4.2170 24.5920 31.7150 0
M  V30 2328 N  -2.3530 21.2890 26.9960 0
M  V30 2329 C  -0.8850 21.3790 27.0500 0 CFG=2
M  V30 2330 C  -0.3620 21.9020 28.4130 0
M  V30 2331 O  0.0560 23.0780 28.5620 0
M  V30 2332 C  -0.5610 22.3420 25.9000 0
M  V30 2333 C  -1.7660 23.2400 25.8030 0
M  V30 2334 C  -2.9330 22.5480 26.4840 0
M  V30 2335 H  -0.4510 20.4010 26.8420 0
M  V30 2336 H  -0.4570 21.7770 24.9730 0
M  V30 2337 H  0.3130 22.9380 26.1630 0
M  V30 2338 H  -2.0070 23.4120 24.7540 0
M  V30 2339 H  -1.5570 24.1830 26.3090 0
M  V30 2340 H  -3.2720 23.1560 27.3230 0
M  V30 2341 H  -3.6980 22.3180 25.7420 0
M  V30 2342 N  -0.3850 21.0080 29.3940 0
M  V30 2343 C  0.1330 21.2920 30.7280 0 CFG=2
M  V30 2344 C  1.6040 21.7490 30.7310 0
M  V30 2345 O  2.0270 22.5520 31.5690 0
M  V30 2346 C  -0.0380 20.0420 31.6240 0
M  V30 2347 C  0.8310 18.9100 31.1260 0
M  V30 2348 C  0.3270 20.3440 33.0460 0
M  V30 2349 H  -0.7720 20.0900 29.2320 0
M  V30 2350 H  -0.4680 22.0950 31.1560 0
M  V30 2351 H  -1.0800 19.7250 31.5890 0
M  V30 2352 H  0.6970 18.0400 31.7690 0
M  V30 2353 H  0.5460 18.6540 30.1060 0
M  V30 2354 H  1.8760 19.2180 31.1450 0
M  V30 2355 H  0.1980 19.4480 33.6530 0
M  V30 2356 H  1.3660 20.6680 33.0940 0
M  V30 2357 H  -0.3180 21.1360 33.4260 0
M  V30 2358 N  2.3950 21.1970 29.8300 0
M  V30 2359 C  3.8200 21.5880 29.7060 0 CFG=2
M  V30 2360 C  4.0920 23.0780 29.4730 0
M  V30 2361 O  5.2090 23.5400 29.7000 0
M  V30 2362 C  4.4760 20.8410 28.5750 0
M  V30 2363 C  4.6730 19.3520 28.7990 0
M  V30 2364 C  5.2580 18.7920 27.5170 0
M  V30 2365 C  5.6800 17.3380 27.6700 0
M  V30 2366 N  6.4830 16.8490 26.5220 0 CHG=1
M  V30 2367 H  2.0330 20.4910 29.2050 0
M  V30 2368 H  4.3240 21.3000 30.6280 0
M  V30 2369 H  5.4370 21.3020 28.3490 0
M  V30 2370 H  3.9010 20.9940 27.6610 0
M  V30 2371 H  3.7080 18.8830 28.9920 0
M  V30 2372 H  5.3780 19.1980 29.6170 0
M  V30 2373 H  6.1200 19.3900 27.2200 0
M  V30 2374 H  4.5230 18.8740 26.7170 0
M  V30 2375 H  4.7940 16.7140 27.7840 0
M  V30 2376 H  6.2550 17.2220 28.5890 0
M  V30 2377 H  7.4100 17.2480 26.5640 0
M  V30 2378 H  6.5490 15.8420 26.5610 0
M  V30 2379 H  6.0380 17.1230 25.6580 0
M  V30 2380 N  3.0890 23.8340 29.0380 0
M  V30 2381 C  3.2590 25.2480 28.7170 0 CFG=2
M  V30 2382 C  2.4900 26.1270 29.6880 0
M  V30 2383 O  2.5180 27.3570 29.5820 0
M  V30 2384 C  2.7890 25.5030 27.2740 0
M  V30 2385 C  3.8100 25.0590 26.2440 0
M  V30 2386 C  4.8350 25.7970 25.7420 0
M  V30 2387 C  3.9250 23.7690 25.6610 0
M  V30 2388 N  5.5600 25.0620 24.8610 0
M  V30 2389 C  5.0230 23.8080 24.7850 0
M  V30 2390 C  3.1830 22.5830 25.7740 0
M  V30 2391 C  5.4390 22.6870 24.0440 0
M  V30 2392 C  3.5740 21.4820 25.0320 0
M  V30 2393 C  4.6910 21.5420 24.1740 0
M  V30 2394 H  2.1690 23.4340 28.9190 0
M  V30 2395 H  4.3180 25.4950 28.7870 0
M  V30 2396 H  2.5810 26.5650 27.1430 0
M  V30 2397 H  1.8490 24.9790 27.1010 0
M  V30 2398 H  4.9720 26.8190 26.0610 0
M  V30 2399 H  6.3530 25.4750 24.3910 0
M  V30 2400 H  2.3260 22.5420 26.4300 0
M  V30 2401 H  6.3110 22.7520 23.4110 0
M  V30 2402 H  3.0210 20.5570 25.1060 0
M  V30 2403 H  4.9530 20.6590 23.6100 0
M  V30 2404 N  1.7280 25.4750 30.5700 0
M  V30 2405 C  0.7380 26.1000 31.4130 0 CFG=2
M  V30 2406 C  1.4230 26.5610 32.6850 0
M  V30 2407 O  2.2300 25.8490 33.2680 0
M  V30 2408 C  -0.3880 25.1330 31.7660 0
M  V30 2409 H  1.8250 24.4760 30.6800 0
M  V30 2410 H  0.3200 26.9640 30.8970 0
M  V30 2411 H  -1.1150 25.6380 32.4020 0
M  V30 2412 H  -0.8770 24.7950 30.8530 0
M  V30 2413 H  0.0240 24.2740 32.2960 0
M  V30 2414 N  1.0730 27.7510 33.1220 0
M  V30 2415 C  1.5100 28.1830 34.4330 0 CFG=2
M  V30 2416 C  0.7470 27.3270 35.4830 0
M  V30 2417 O  -0.2930 26.7050 35.1700 0
M  V30 2418 C  1.1980 29.6570 34.5970 0
M  V30 2419 O  -0.2210 29.8350 34.5210 0
M  V30 2420 H  0.5060 28.3540 32.5440 0
M  V30 2421 H  2.5830 28.0210 34.5360 0
M  V30 2422 H  1.6780 30.2210 33.7980 0
M  V30 2423 H  1.5550 29.9970 35.5700 0
M  V30 2424 H  -0.4470 30.6010 35.0530 0
M  V30 2425 N  1.2390 27.3090 36.7420 0
M  V30 2426 C  0.5560 26.5890 37.7820 0 CFG=2
M  V30 2427 C  -0.9210 27.0050 37.9900 0
M  V30 2428 O  -1.7730 26.1630 38.2690 0
M  V30 2429 C  1.4240 26.8960 39.0010 0
M  V30 2430 C  2.7970 27.0860 38.4280 0
M  V30 2431 C  2.5220 27.8760 37.2130 0
M  V30 2432 H  0.6020 25.5210 37.5680 0
M  V30 2433 H  1.4270 26.0330 39.6670 0
M  V30 2434 H  1.0900 27.8290 39.4550 0
M  V30 2435 H  3.2030 26.1160 38.1400 0
M  V30 2436 H  3.3940 27.6840 39.1160 0
M  V30 2437 H  2.3730 28.9200 37.4890 0
M  V30 2438 H  3.2960 27.6770 36.4720 0
M  V30 2439 N  -1.2640 28.2780 37.8210 0
M  V30 2440 C  -2.6500 28.6930 38.0770 0 CFG=2
M  V30 2441 C  -3.5440 28.3770 36.8340 0
M  V30 2442 O  -4.7450 28.3340 36.9410 0
M  V30 2443 C  -2.7280 30.1660 38.5420 0
M  V30 2444 C  -2.4430 31.2270 37.4580 0
M  V30 2445 C  -0.9450 31.4570 37.0930 0
M  V30 2446 O  -0.0350 30.8030 37.6930 0
M  V30 2447 O  -0.6660 32.3350 36.2030 0 CHG=-1
M  V30 2448 H  -0.5740 28.9510 37.5190 0
M  V30 2449 H  -3.0190 28.0800 38.8990 0
M  V30 2450 H  -2.0460 30.3160 39.3790 0
M  V30 2451 H  -3.7070 30.3540 38.9810 0
M  V30 2452 H  -2.8900 32.1750 37.7570 0
M  V30 2453 H  -2.9980 30.9740 36.5540 0
M  V30 2454 N  -2.9420 28.1480 35.6860 0
M  V30 2455 C  -3.6830 27.6490 34.4940 0 CFG=2
M  V30 2456 C  -3.9370 26.1570 34.6250 0
M  V30 2457 O  -5.0630 25.7200 34.5000 0
M  V30 2458 C  -2.9550 27.9910 33.2000 0
M  V30 2459 C  -3.5750 27.2770 31.9740 0
M  V30 2460 C  -3.0290 29.4920 33.0130 0
M  V30 2461 H  -1.9500 28.3110 35.5950 0
M  V30 2462 H  -4.6510 28.1500 34.4720 0
M  V30 2463 H  -1.9100 27.6950 33.2920 0
M  V30 2464 H  -3.0220 27.5510 31.0750 0
M  V30 2465 H  -3.5220 26.1970 32.1170 0
M  V30 2466 H  -4.6170 27.5780 31.8650 0
M  V30 2467 H  -2.5160 29.7700 32.0930 0
M  V30 2468 H  -4.0730 29.8010 32.9540 0
M  V30 2469 H  -2.5520 29.9880 33.8590 0
M  V30 2470 N  -2.9320 25.3690 34.9910 0
M  V30 2471 C  -3.1700 23.9240 35.1250 0 CFG=2
M  V30 2472 C  -3.9650 23.5100 36.3940 0
M  V30 2473 O  -4.5630 22.4620 36.4430 0
M  V30 2474 C  -1.8960 23.1230 34.8760 0
M  V30 2475 C  -0.8300 23.1950 35.9530 0
M  V30 2476 C  -1.0890 22.8680 37.3000 0
M  V30 2477 C  0.5220 23.4180 35.5680 0
M  V30 2478 C  -0.0660 22.8940 38.2610 0
M  V30 2479 C  1.5450 23.3920 36.5130 0
M  V30 2480 C  1.2560 23.1470 37.8490 0
M  V30 2481 H  -2.0210 25.7650 35.1730 0
M  V30 2482 H  -3.8250 23.6710 34.2910 0
M  V30 2483 H  -1.4630 23.4230 33.9220 0
M  V30 2484 H  -2.1570 22.0790 34.6990 0
M  V30 2485 H  -2.0880 22.5930 37.6060 0
M  V30 2486 H  0.7650 23.6090 34.5330 0
M  V30 2487 H  -0.2980 22.7200 39.3020 0
M  V30 2488 H  2.5670 23.5640 36.2080 0
M  V30 2489 H  2.0570 23.1520 38.5740 0
M  V30 2490 N  -3.9830 24.3570 37.4080 0
M  V30 2491 C  -4.8080 24.1710 38.5840 0 CFG=2
M  V30 2492 C  -6.2740 24.6510 38.4300 0
M  V30 2493 O  -7.2260 23.9620 38.8620 0
M  V30 2494 C  -4.1690 24.9810 39.7220 0
M  V30 2495 O  -2.8500 24.5280 40.0160 0
M  V30 2496 H  -3.4020 25.1830 37.3870 0
M  V30 2497 H  -4.8070 23.1160 38.8550 0
M  V30 2498 H  -4.7880 24.9020 40.6160 0
M  V30 2499 H  -4.1370 26.0350 39.4430 0
M  V30 2500 H  -2.2730 24.8890 39.3430 0
M  V30 2501 N  -6.4660 25.8530 37.8500 0
M  V30 2502 C  -7.8150 26.4730 37.8000 0 CFG=2
M  V30 2503 C  -8.0980 27.2870 36.5840 0
M  V30 2504 O  -9.0050 28.1080 36.6200 0
M  V30 2505 C  -8.1140 27.3300 39.0520 0
M  V30 2506 C  -9.5650 27.2130 39.5760 0
M  V30 2507 C  -10.3430 28.3530 39.7960 0
M  V30 2508 C  -10.1390 25.9860 39.8290 0
M  V30 2509 C  -11.6320 28.2590 40.2840 0
M  V30 2510 C  -11.4420 25.8640 40.3210 0
M  V30 2511 C  -12.1840 27.0150 40.5800 0
M  V30 2512 H  -5.6860 26.3470 37.4400 0
M  V30 2513 H  -8.5350 25.6550 37.8020 0
M  V30 2514 H  -7.8910 28.3750 38.8350 0
M  V30 2515 H  -7.4200 27.0610 39.8480 0
M  V30 2516 H  -9.9390 29.3320 39.5850 0
M  V30 2517 H  -9.5800 25.0800 39.6480 0
M  V30 2518 H  -12.2180 29.1540 40.4380 0
M  V30 2519 H  -11.8640 24.8850 40.4950 0
M  V30 2520 H  -13.1740 26.9500 41.0050 0
M  V30 2521 N  -7.3730 27.0330 35.4870 0
M  V30 2522 C  -7.6370 27.7390 34.2370 0 CFG=2
M  V30 2523 C  -7.6460 29.2450 34.4430 0
M  V30 2524 O  -8.4880 29.9330 33.8690 0
M  V30 2525 C  -9.0060 27.3390 33.6800 0
M  V30 2526 O  -8.9680 26.0560 33.1680 0
M  V30 2527 H  -6.6330 26.3450 35.5180 0
M  V30 2528 H  -6.8660 27.4820 33.5110 0
M  V30 2529 H  -9.2950 28.0360 32.8920 0
M  V30 2530 H  -9.7510 27.3910 34.4740 0
M  V30 2531 H  -8.7300 25.4630 33.8670 0
M  V30 2532 N  -6.7270 29.7420 35.2760 0
M  V30 2533 C  -6.6610 31.1620 35.5840 0 CFG=2
M  V30 2534 C  -5.7030 31.9030 34.6640 0
M  V30 2535 O  -4.5220 32.1240 34.9670 0
M  V30 2536 C  -6.3460 31.3900 37.0550 0
M  V30 2537 C  -6.1830 32.8520 37.3420 0
M  V30 2538 C  -6.2970 33.2650 38.8030 0
M  V30 2539 N  -5.5190 32.4990 39.7640 0
M  V30 2540 C  -4.4700 32.9520 40.4490 0
M  V30 2541 N  -3.8970 32.1710 41.3710 0
M  V30 2542 N  -3.9270 34.1340 40.1710 0 CHG=1
M  V30 2543 H  -6.0530 29.1270 35.7100 0
M  V30 2544 H  -7.6540 31.5730 35.4040 0
M  V30 2545 H  -5.4270 30.8650 37.3150 0
M  V30 2546 H  -7.1540 30.9880 37.6660 0
M  V30 2547 H  -6.9030 33.4170 36.7510 0
M  V30 2548 H  -5.2250 33.1920 36.9470 0
M  V30 2549 H  -7.3470 33.2510 39.0980 0
M  V30 2550 H  -6.0460 34.3210 38.8980 0
M  V30 2551 H  -5.8350 31.5480 39.8940 0
M  V30 2552 H  -3.1010 32.5080 41.8950 0
M  V30 2553 H  -4.2590 31.2440 41.5440 0
M  V30 2554 H  -3.1320 34.4620 40.7000 0
M  V30 2555 H  -4.3100 34.7040 39.4300 0
M  V30 2556 N  -6.2390 32.3000 33.5200 0
M  V30 2557 C  -5.4300 32.8410 32.3910 0 CFG=2
M  V30 2558 C  -5.2110 34.3200 32.5040 0
M  V30 2559 O  -6.1130 35.0070 32.9040 0
M  V30 2560 C  -6.1510 32.6360 31.0610 0
M  V30 2561 C  -6.1790 31.2180 30.5930 0
M  V30 2562 C  -5.1060 30.6870 29.9120 0
M  V30 2563 C  -7.2700 30.4290 30.8250 0
M  V30 2564 C  -5.1220 29.3810 29.4990 0
M  V30 2565 C  -7.3020 29.1420 30.4190 0
M  V30 2566 C  -6.2280 28.6360 29.7470 0
M  V30 2567 O  -6.2340 27.3620 29.3430 0
M  V30 2568 H  -7.2380 32.2440 33.3840 0
M  V30 2569 H  -4.4660 32.3340 32.3610 0
M  V30 2570 H  -5.6860 33.2600 30.2980 0
M  V30 2571 H  -7.1720 33.0100 31.1420 0
M  V30 2572 H  -4.2440 31.3020 29.7000 0
M  V30 2573 H  -8.1280 30.8340 31.3420 0
M  V30 2574 H  -4.2660 28.9660 28.9880 0
M  V30 2575 H  -8.1670 28.5310 30.6290 0
M  V30 2576 H  -5.4920 27.1220 28.8030 0
M  V30 2577 N  -4.0440 34.8010 32.0460 0
M  V30 2578 C  -3.7210 36.2100 32.0410 0 CFG=2
M  V30 2579 C  -2.4820 36.4130 31.1660 0
M  V30 2580 O  -1.8780 35.4600 30.6720 0
M  V30 2581 C  -3.4090 36.7260 33.4600 0
M  V30 2582 O  -2.1840 36.1790 33.9580 0
M  V30 2583 H  -3.3450 34.1680 31.6840 0
M  V30 2584 H  -4.5560 36.7730 31.6250 0
M  V30 2585 H  -4.2250 36.4580 34.1310 0
M  V30 2586 H  -3.3400 37.8140 33.4440 0
M  V30 2587 H  -2.3550 35.2670 34.1820 0
M  V30 2588 N  -2.1070 37.6660 30.9910 0
M  V30 2589 C  -0.9120 37.9680 30.2260 0 CFG=2
M  V30 2590 C  0.2720 37.4510 30.9740 0
M  V30 2591 O  1.2920 37.0860 30.3510 0
M  V30 2592 C  -0.7570 39.4490 29.9200 0
M  V30 2593 O  -1.4270 39.6930 28.6910 0
M  V30 2594 H  -2.6520 38.4170 31.3910 0
M  V30 2595 H  -0.9740 37.4320 29.2790 0
M  V30 2596 H  0.3010 39.6870 29.8100 0
M  V30 2597 H  -1.2260 40.0340 30.7110 0
M  V30 2598 H  -0.9140 39.3660 27.9610 0
M  V30 2599 N  0.1320 37.3620 32.2970 0
M  V30 2600 C  1.2010 36.7590 33.0950 0 CFG=2
M  V30 2601 C  1.3470 35.2330 32.9350 0
M  V30 2602 O  2.4470 34.6990 33.0620 0
M  V30 2603 C  1.0670 37.1840 34.5840 0
M  V30 2604 C  1.3250 38.6780 34.8100 0
M  V30 2605 C  2.7070 39.1650 34.3750 0
M  V30 2606 C  3.0100 40.5250 35.0220 0
M  V30 2607 N  3.2660 40.4520 36.5040 0 CHG=1
M  V30 2608 H  -0.7060 37.7090 32.7410 0
M  V30 2609 H  2.1340 37.1950 32.7360 0
M  V30 2610 H  1.7600 36.6010 35.1910 0
M  V30 2611 H  0.0690 36.9310 34.9440 0
M  V30 2612 H  1.1740 38.9160 35.8630 0
M  V30 2613 H  0.5600 39.2580 34.2940 0
M  V30 2614 H  2.7320 39.2650 33.2900 0
M  V30 2615 H  3.4610 38.4400 34.6830 0
M  V30 2616 H  2.1830 41.2090 34.8320 0
M  V30 2617 H  3.8710 40.9770 34.5290 0
M  V30 2618 H  4.2060 40.1210 36.6680 0
M  V30 2619 H  3.1580 41.3700 36.9110 0
M  V30 2620 H  2.6070 39.8160 36.9290 0
M  V30 2621 N  0.2460 34.5240 32.6960 0
M  V30 2622 C  0.3190 33.1000 32.3180 0 CFG=2
M  V30 2623 C  0.8160 32.9170 30.9350 0
M  V30 2624 O  1.4340 31.9000 30.6410 0
M  V30 2625 C  -0.9900 32.3050 32.4970 0
M  V30 2626 O  -2.0300 32.8290 31.7140 0
M  V30 2627 H  -0.6620 34.9610 32.7700 0
M  V30 2628 H  1.0550 32.6400 32.9780 0
M  V30 2629 H  -1.2830 32.3210 33.5470 0
M  V30 2630 H  -0.8210 31.2630 32.2260 0
M  V30 2631 H  -1.7510 32.8100 30.7990 0
M  V30 2632 N  0.5630 33.8620 30.0560 0
M  V30 2633 C  1.2870 33.8540 28.7650 0 CFG=2
M  V30 2634 C  2.8360 34.0050 28.9500 0
M  V30 2635 O  3.5920 33.4550 28.1970 0
M  V30 2636 C  0.7520 34.9650 27.8300 0
M  V30 2637 C  -0.5770 34.6340 27.1720 0
M  V30 2638 O  -0.9790 33.4690 27.1650 0
M  V30 2639 O  -1.2280 35.5700 26.6070 0 CHG=-1
M  V30 2640 H  -0.1170 34.5790 30.2660 0
M  V30 2641 H  1.1000 32.8940 28.2840 0
M  V30 2642 H  1.4940 35.1760 27.0590 0
M  V30 2643 H  0.6570 35.8950 28.3910 0
M  V30 2644 N  3.2810 34.7230 29.9790 0
M  V30 2645 C  4.7060 34.9600 30.2080 0 CFG=2
M  V30 2646 C  5.3720 33.6170 30.6330 0
M  V30 2647 O  6.4950 33.2970 30.2240 0
M  V30 2648 C  4.9430 36.0920 31.2420 0
M  V30 2649 C  6.3890 36.1060 31.7120 0
M  V30 2650 C  4.6220 37.4780 30.6560 0
M  V30 2651 H  2.6270 35.1270 30.6340 0
M  V30 2652 H  5.1510 35.2700 29.2630 0
M  V30 2653 H  4.2980 35.9190 32.1030 0
M  V30 2654 H  6.5290 36.9090 32.4360 0
M  V30 2655 H  6.6290 35.1510 32.1790 0
M  V30 2656 H  7.0480 36.2680 30.8580 0
M  V30 2657 H  4.8010 38.2420 31.4120 0
M  V30 2658 H  5.2600 37.6640 29.7920 0
M  V30 2659 H  3.5770 37.5090 30.3490 0
M  V30 2660 N  4.6650 32.8390 31.4420 0
M  V30 2661 C  5.1660 31.5370 31.8000 0 CFG=2
M  V30 2662 C  5.3870 30.7310 30.5070 0
M  V30 2663 O  6.4430 30.1880 30.3140 0
M  V30 2664 C  4.2050 30.8130 32.7400 0
M  V30 2665 C  4.6780 29.3890 33.0710 0
M  V30 2666 C  4.7400 28.3230 32.2060 0
M  V30 2667 C  5.1520 28.8880 34.3690 0
M  V30 2668 N  5.2280 27.2130 32.8830 0
M  V30 2669 C  5.4910 27.5530 34.2010 0
M  V30 2670 C  5.3460 29.4800 35.6540 0
M  V30 2671 C  6.0370 26.7800 35.2470 0
M  V30 2672 C  5.9000 28.6940 36.7050 0
M  V30 2673 C  6.1930 27.3540 36.4920 0
M  V30 2674 H  3.7780 33.1610 31.8050 0
M  V30 2675 H  6.1240 31.6570 32.3050 0
M  V30 2676 H  3.2160 30.7690 32.2840 0
M  V30 2677 H  4.1010 31.3840 33.6620 0
M  V30 2678 H  4.4300 28.4420 31.1780 0
M  V30 2679 H  5.3390 26.3340 32.3970 0
M  V30 2680 H  5.0730 30.5120 35.8200 0
M  V30 2681 H  6.3260 25.7550 35.0670 0
M  V30 2682 H  6.0930 29.1400 37.6700 0
M  V30 2683 H  6.5490 26.7590 37.3210 0
M  V30 2684 N  4.3550 30.6310 29.6570 0
M  V30 2685 C  4.4520 29.9460 28.4010 0 CFG=2
M  V30 2686 C  5.6120 30.4370 27.5280 0
M  V30 2687 O  6.2630 29.6300 26.8500 0
M  V30 2688 C  3.1710 30.0500 27.6120 0
M  V30 2689 O  2.0420 29.7410 28.3960 0
M  V30 2690 H  3.4650 31.0480 29.8910 0
M  V30 2691 H  4.6240 28.8910 28.6140 0
M  V30 2692 H  3.2160 29.3750 26.7570 0
M  V30 2693 H  3.0710 31.0610 27.2150 0
M  V30 2694 H  2.1480 28.8580 28.7500 0
M  V30 2695 N  5.8320 31.7520 27.5090 0
M  V30 2696 C  6.9350 32.3440 26.7420 0 CFG=2
M  V30 2697 C  8.3210 31.9190 27.3060 0
M  V30 2698 O  9.2980 31.7930 26.5550 0
M  V30 2699 C  6.7650 33.8720 26.6790 0
M  V30 2700 C  7.9810 34.5870 26.1600 0
M  V30 2701 C  8.2380 34.6650 24.7580 0
M  V30 2702 C  8.9240 35.0960 27.0430 0
M  V30 2703 C  9.3830 35.2900 24.2610 0
M  V30 2704 C  10.0580 35.7250 26.5460 0
M  V30 2705 C  10.2770 35.8510 25.1700 0
M  V30 2706 H  5.2320 32.3720 28.0330 0
M  V30 2707 H  6.8650 31.9640 25.7230 0
M  V30 2708 H  6.5190 34.2500 27.6710 0
M  V30 2709 H  5.9070 34.1160 26.0510 0
M  V30 2710 H  7.5390 34.2350 24.0560 0
M  V30 2711 H  8.7730 35.0010 28.1080 0
M  V30 2712 H  9.5580 35.3290 23.1960 0
M  V30 2713 H  10.7930 36.1290 27.2270 0
M  V30 2714 H  11.1450 36.3870 24.8140 0
M  V30 2715 N  8.4120 31.6710 28.6220 0
M  V30 2716 C  9.6200 31.0750 29.1830 0
M  V30 2717 C  9.9160 29.7480 28.5390 0
M  V30 2718 O  11.0520 29.4360 28.1740 0
M  V30 2719 H  7.6400 31.8960 29.2330 0
M  V30 2720 H  9.4910 30.9370 30.2570 0
M  V30 2721 H  10.4620 31.7500 29.0290 0
M  V30 2722 N  8.8870 28.9470 28.4120 0
M  V30 2723 C  9.0100 27.5990 27.8650 0 CFG=2
M  V30 2724 C  9.3460 27.6600 26.3800 0
M  V30 2725 O  10.1650 26.8840 25.8830 0
M  V30 2726 C  7.7030 26.7780 28.0970 0
M  V30 2727 C  7.8430 25.3840 27.4940 0
M  V30 2728 C  7.4100 26.6910 29.6030 0
M  V30 2729 H  7.9680 29.2550 28.6970 0
M  V30 2730 H  9.8280 27.0940 28.3800 0
M  V30 2731 H  6.8760 27.2910 27.6080 0
M  V30 2732 H  6.9240 24.8210 27.6630 0
M  V30 2733 H  8.0250 25.4680 26.4230 0
M  V30 2734 H  8.6770 24.8650 27.9660 0
M  V30 2735 H  6.4970 26.1180 29.7630 0
M  V30 2736 H  8.2410 26.1990 30.1080 0
M  V30 2737 H  7.2830 27.6950 30.0080 0
M  V30 2738 N  8.7260 28.5890 25.6640 0
M  V30 2739 C  9.0620 28.8240 24.2690 0 CFG=2
M  V30 2740 C  10.5120 29.2270 24.1460 0
M  V30 2741 O  11.1960 28.7660 23.2520 0
M  V30 2742 C  8.1010 29.8670 23.6490 0
M  V30 2743 C  8.3390 30.3260 22.2080 0
M  V30 2744 C  7.0890 30.9660 21.6470 0
M  V30 2745 C  9.4490 31.3750 22.1690 0
M  V30 2746 H  8.0020 29.1530 26.0860 0
M  V30 2747 H  8.9290 27.8860 23.7300 0
M  V30 2748 H  8.0580 30.7410 24.2980 0
M  V30 2749 H  7.0760 29.5070 23.7430 0
M  V30 2750 H  8.6210 29.4710 21.5930 0
M  V30 2751 H  7.2730 31.2870 20.6220 0
M  V30 2752 H  6.2730 30.2430 21.6590 0
M  V30 2753 H  6.8180 31.8290 22.2540 0
M  V30 2754 H  9.6110 31.6950 21.1400 0
M  V30 2755 H  9.1600 32.2330 22.7750 0
M  V30 2756 H  10.3700 30.9450 22.5650 0
M  V30 2757 N  11.0060 30.0830 25.0420 0
M  V30 2758 C  12.4390 30.4580 25.0520 0 CFG=2
M  V30 2759 C  13.3360 29.2000 25.1930 0
M  V30 2760 O  14.4140 29.0730 24.5390 0
M  V30 2761 C  12.7240 31.4340 26.2000 0
M  V30 2762 C  12.4290 32.8960 25.8680 0
M  V30 2763 S  12.8000 33.8990 27.2880 0
M  V30 2764 C  14.5620 34.2870 27.1560 0
M  V30 2765 H  10.3980 30.4950 25.7360 0
M  V30 2766 H  12.6760 30.9510 24.1090 0
M  V30 2767 H  13.7650 31.3360 26.5070 0
M  V30 2768 H  12.1470 31.1390 27.0770 0
M  V30 2769 H  11.3760 33.0050 25.6120 0
M  V30 2770 H  13.0500 33.2110 25.0300 0
M  V30 2771 H  14.8630 34.9060 28.0010 0
M  V30 2772 H  15.1390 33.3620 27.1590 0
M  V30 2773 H  14.7470 34.8260 26.2270 0
M  V30 2774 N  12.9120 28.2690 26.0430 0
M  V30 2775 C  13.6720 27.0270 26.2560 0 CFG=2
M  V30 2776 C  13.6490 26.1900 24.9760 0
M  V30 2777 O  14.6590 25.6600 24.5760 0
M  V30 2778 C  13.1340 26.2680 27.4890 0
M  V30 2779 C  13.8530 24.9970 27.8430 0
M  V30 2780 C  14.8130 24.8260 28.8030 0
M  V30 2781 C  13.6670 23.7150 27.2340 0
M  V30 2782 N  15.2480 23.5070 28.8120 0
M  V30 2783 C  14.5400 22.8090 27.8700 0
M  V30 2784 C  12.8510 23.2430 26.2020 0
M  V30 2785 C  14.5850 21.4660 27.5310 0
M  V30 2786 C  12.9280 21.8970 25.8530 0
M  V30 2787 C  13.7900 21.0380 26.4980 0
M  V30 2788 H  12.0550 28.4080 26.5580 0
M  V30 2789 H  14.7080 27.2990 26.4570 0
M  V30 2790 H  12.0750 26.0540 27.3450 0
M  V30 2791 H  13.1370 26.9350 28.3510 0
M  V30 2792 H  15.1190 25.6610 29.4160 0
M  V30 2793 H  15.9750 23.2200 29.4510 0
M  V30 2794 H  12.1790 23.9190 25.6930 0
M  V30 2795 H  15.2330 20.7940 28.0750 0
M  V30 2796 H  12.3040 21.5070 25.0620 0
M  V30 2797 H  13.8310 20.0080 26.1750 0
M  V30 2798 N  12.4950 26.0980 24.3280 0
M  V30 2799 C  12.3440 25.3750 23.0470 0 CFG=2
M  V30 2800 C  13.2460 25.9980 21.9860 0
M  V30 2801 O  13.8990 25.3170 21.2330 0
M  V30 2802 C  10.8920 25.4240 22.5420 0
M  V30 2803 C  9.8550 24.7260 23.3910 0
M  V30 2804 C  8.4680 24.7960 22.7550 0
M  V30 2805 O  8.0820 23.8230 22.0460 0
M  V30 2806 O  7.7740 25.8510 22.8640 0 CHG=-1
M  V30 2807 H  11.6660 26.5330 24.7070 0
M  V30 2808 H  12.6350 24.3340 23.1920 0
M  V30 2809 H  10.8510 25.0270 21.5280 0
M  V30 2810 H  10.5970 26.4630 22.3980 0
M  V30 2811 H  9.8250 25.1860 24.3780 0
M  V30 2812 H  10.1390 23.6820 23.5260 0
M  V30 2813 N  13.3140 27.3200 21.9440 0
M  V30 2814 C  14.1820 27.9820 20.9710 0 CFG=2
M  V30 2815 C  15.6580 27.7130 21.2250 0
M  V30 2816 O  16.3600 27.3490 20.2880 0
M  V30 2817 C  13.9420 29.4960 20.9410 0
M  V30 2818 C  15.0300 30.2120 20.1550 0
M  V30 2819 C  12.5970 29.7420 20.3400 0
M  V30 2820 H  12.7640 27.8740 22.5860 0
M  V30 2821 H  13.9370 27.5880 19.9850 0
M  V30 2822 H  13.9430 29.8710 21.9640 0
M  V30 2823 H  14.8320 31.2840 20.1520 0
M  V30 2824 H  15.9980 30.0240 20.6190 0
M  V30 2825 H  15.0420 29.8430 19.1290 0
M  V30 2826 H  12.4040 30.8140 20.3080 0
M  V30 2827 H  12.5720 29.3380 19.3280 0
M  V30 2828 H  11.8340 29.2540 20.9450 0
M  V30 2829 N  16.1220 27.9220 22.4790 0
M  V30 2830 C  17.5200 27.7970 22.8260 0 CFG=2
M  V30 2831 C  18.0140 26.3660 22.8250 0
M  V30 2832 O  19.2230 26.1100 22.6130 0
M  V30 2833 C  17.8620 28.4870 24.1890 0
M  V30 2834 C  18.1490 29.9410 24.0250 0
M  V30 2835 C  19.4070 30.3510 23.6970 0
M  V30 2836 C  17.1260 30.8700 24.0660 0
M  V30 2837 C  19.6900 31.6840 23.4730 0
M  V30 2838 C  17.3820 32.2040 23.8240 0
M  V30 2839 C  18.6770 32.6200 23.5370 0
M  V30 2840 H  15.4830 28.1760 23.2190 0
M  V30 2841 H  18.0840 28.3250 22.0560 0
M  V30 2842 H  18.7250 27.9960 24.6380 0
M  V30 2843 H  17.0290 28.3580 24.8800 0
M  V30 2844 H  20.2040 29.6290 23.6090 0
M  V30 2845 H  16.1180 30.5530 24.2880 0
M  V30 2846 H  20.7020 31.9910 23.2490 0
M  V30 2847 H  16.5780 32.9230 23.8590 0
M  V30 2848 H  18.8950 33.6640 23.3640 0
M  V30 2849 N  17.1020 25.4340 23.0460 0
M  V30 2850 C  17.4370 23.9960 22.9140 0 CFG=2
M  V30 2851 C  17.2700 23.5180 21.4680 0
M  V30 2852 O  17.3760 22.3310 21.2080 0
M  V30 2853 C  16.5660 23.1710 23.8660 0
M  V30 2854 O  15.2320 23.2130 23.4130 0
M  V30 2855 H  16.1630 25.6980 23.3090 0
M  V30 2856 H  18.4800 23.8600 23.2000 0
M  V30 2857 H  16.6230 23.5940 24.8690 0
M  V30 2858 H  16.9140 22.1380 23.8730 0
M  V30 2859 H  14.8680 24.0570 23.6860 0
M  V30 2860 N  17.0030 24.4430 20.5260 0
M  V30 2861 C  16.9000 24.1210 19.0910 0 CFG=2
M  V30 2862 C  15.7630 23.0820 18.8390 0
M  V30 2863 O  15.9400 22.1350 18.0750 0
M  V30 2864 C  18.2470 23.6520 18.5180 0
M  V30 2865 C  19.3450 24.7390 18.5450 0
M  V30 2866 C  20.7110 24.2390 18.0550 0
M  V30 2867 O  21.1000 24.5200 16.9050 0
M  V30 2868 O  21.3890 23.4960 18.7790 0 CHG=-1
M  V30 2869 H  16.8620 25.4070 20.7900 0
M  V30 2870 H  16.6250 25.0380 18.5700 0
M  V30 2871 H  18.1050 23.3090 17.4930 0
M  V30 2872 H  18.5910 22.7780 19.0700 0
M  V30 2873 H  19.4440 25.1280 19.5590 0
M  V30 2874 H  19.0300 25.5870 17.9360 0
M  V30 2875 N  14.6130 23.3110 19.4850 0
M  V30 2876 C  13.3630 22.5940 19.2700 0
M  V30 2877 C  13.2280 21.2620 20.0110 0
M  V30 2878 O  12.5780 20.3500 19.5260 0
M  V30 2879 H  14.5640 24.0340 20.1880 0
M  V30 2880 H  13.2220 22.4270 18.2020 0
M  V30 2881 H  12.5270 23.2400 19.5360 0
M  V30 2882 N  13.8130 21.1370 21.1950 0
M  V30 2883 C  13.6470 19.9210 22.0150 0 CFG=2
M  V30 2884 C  12.2540 19.9770 22.6740 0
M  V30 2885 O  11.6960 21.0560 22.8180 0
M  V30 2886 C  14.7290 19.8430 23.0920 0
M  V30 2887 C  16.0570 19.2330 22.6320 0
M  V30 2888 C  15.7350 17.9110 21.9300 0
M  V30 2889 C  16.6070 16.7510 22.3410 0
M  V30 2890 N  16.3750 15.6540 21.3560 0 CHG=1
M  V30 2891 H  14.3890 21.8840 21.5550 0
M  V30 2892 H  13.7090 19.0420 21.3750 0
M  V30 2893 H  14.3490 19.2800 23.9440 0
M  V30 2894 H  14.9100 20.8400 23.4940 0
M  V30 2895 H  16.6870 19.0390 23.5000 0
M  V30 2896 H  16.5420 19.9090 21.9280 0
M  V30 2897 H  15.8040 18.0490 20.8510 0
M  V30 2898 H  14.6900 17.6550 22.1030 0
M  V30 2899 H  16.3140 16.4130 23.3360 0
M  V30 2900 H  17.6530 17.0540 22.3080 0
M  V30 2901 H  16.6240 15.9740 20.4310 0
M  V30 2902 H  16.9450 14.8560 21.6000 0
M  V30 2903 H  15.4010 15.3880 21.3700 0
M  V30 2904 N  11.6900 18.8270 23.0360 0
M  V30 2905 C  10.3720 18.7770 23.6640 0 CFG=2
M  V30 2906 C  10.5690 18.9950 25.1890 0
M  V30 2907 O  11.3700 18.3030 25.8370 0
M  V30 2908 C  9.6640 17.4390 23.3330 0 CFG=2
M  V30 2909 C  9.4110 17.3260 21.8110 0
M  V30 2910 C  8.3320 17.3260 24.0660 0
M  V30 2911 C  9.0300 15.9230 21.3500 0
M  V30 2912 H  12.1750 17.9550 22.8780 0
M  V30 2913 H  9.7690 19.5960 23.2710 0
M  V30 2914 H  10.3070 16.6160 23.6430 0
M  V30 2915 H  10.2980 17.6560 21.2710 0
M  V30 2916 H  8.6270 18.0270 21.5220 0
M  V30 2917 H  7.8580 16.3780 23.8150 0
M  V30 2918 H  8.5040 17.3720 25.1420 0
M  V30 2919 H  7.6810 18.1480 23.7680 0
M  V30 2920 H  8.8690 15.9250 20.2720 0
M  V30 2921 H  9.8350 15.2290 21.5950 0
M  V30 2922 H  8.1150 15.6100 21.8520 0
M  V30 2923 N  9.9040 20.0060 25.7600 0
M  V30 2924 C  10.0520 20.2010 27.2250 0 CFG=2
M  V30 2925 C  9.5150 19.0280 28.0640 0
M  V30 2926 O  8.4940 18.4840 27.7030 0
M  V30 2927 C  9.2130 21.4580 27.5190 0
M  V30 2928 C  8.5500 21.8660 26.2520 0
M  V30 2929 C  9.1450 21.0770 25.1050 0
M  V30 2930 H  11.0980 20.3860 27.4710 0
M  V30 2931 H  9.8680 22.2600 27.8600 0
M  V30 2932 H  8.4550 21.2220 28.2650 0
M  V30 2933 H  8.7120 22.9300 26.0830 0
M  V30 2934 H  7.4820 21.6590 26.3180 0
M  V30 2935 H  8.3420 20.6400 24.5120 0
M  V30 2936 H  9.8310 21.7150 24.5460 0
M  V30 2937 N  10.1620 18.6700 29.1680 0
M  V30 2938 C  9.6420 17.6300 30.0510 0 CFG=2
M  V30 2939 C  9.2590 16.4020 29.2140 0
M  V30 2940 O  8.1650 15.8490 29.3750 0
M  V30 2941 C  8.3630 18.0780 30.7680 0
M  V30 2942 C  8.3460 19.4440 31.3600 0
M  V30 2943 C  9.0220 19.7390 32.5450 0
M  V30 2944 C  7.6140 20.4520 30.7490 0
M  V30 2945 C  8.9940 21.0400 33.0740 0
M  V30 2946 C  7.5590 21.7380 31.2620 0
M  V30 2947 C  8.2540 22.0500 32.4050 0
M  V30 2948 O  8.1400 23.3650 32.8540 0
M  V30 2949 H  11.0320 19.1190 29.4120 0
M  V30 2950 H  10.4000 17.3550 30.7850 0
M  V30 2951 H  8.1120 17.3510 31.5400 0
M  V30 2952 H  7.5170 17.9720 30.0890 0
M  V30 2953 H  9.5700 18.9640 33.0610 0
M  V30 2954 H  7.0620 20.2460 29.8440 0
M  V30 2955 H  9.5340 21.2650 33.9820 0
M  V30 2956 H  6.9720 22.4940 30.7620 0
M  V30 2957 H  7.5410 23.8920 32.3430 0
M  V30 2958 N  10.1450 16.0000 28.3030 0
M  V30 2959 C  9.8010 15.0320 27.2570 0 CFG=2
M  V30 2960 C  9.2720 13.6540 27.7120 0
M  V30 2961 O  8.3020 13.1240 27.1150 0
M  V30 2962 C  10.9960 14.8200 26.3360 0
M  V30 2963 C  10.6380 14.0600 25.0760 0
M  V30 2964 C  11.8470 13.8630 24.1810 0
M  V30 2965 O  12.6430 12.9180 24.4720 0
M  V30 2966 O  11.9890 14.6710 23.2240 0 CHG=-1
M  V30 2967 H  11.0870 16.3630 28.3210 0
M  V30 2968 H  9.0160 15.4870 26.6540 0
M  V30 2969 H  11.7770 14.2830 26.8730 0
M  V30 2970 H  11.4220 15.7870 26.0670 0
M  V30 2971 H  9.8680 14.6050 24.5300 0
M  V30 2972 H  10.2230 13.0890 25.3440 0
M  V30 2973 N  9.8820 13.0490 28.7220 0
M  V30 2974 C  9.3880 11.7510 29.1790 0 CFG=2
M  V30 2975 C  8.5280 11.8270 30.4340 0
M  V30 2976 O  8.4450 10.8770 31.2090 0
M  V30 2977 C  10.5480 10.7750 29.3670 0
M  V30 2978 C  11.0010 10.1760 28.0560 0
M  V30 2979 O  10.5760 9.0690 27.6940 0
M  V30 2980 N  11.8270 10.9190 27.3120 0
M  V30 2981 H  10.6790 13.4840 29.1650 0
M  V30 2982 H  8.7580 11.3500 28.3840 0
M  V30 2983 H  10.2430 9.9760 30.0440 0
M  V30 2984 H  11.3830 11.2920 29.8390 0
M  V30 2985 H  12.1620 10.5690 26.4260 0
M  V30 2986 H  12.1160 11.8310 27.6360 0
M  V30 2987 N  7.8800 12.9560 30.6370 0
M  V30 2988 C  7.1430 13.1540 31.8730 0 CFG=2
M  V30 2989 C  5.6770 13.1210 31.5230 0
M  V30 2990 O  5.2810 13.6950 30.5310 0
M  V30 2991 C  7.5270 14.4880 32.5240 0
M  V30 2992 C  8.4850 14.4230 33.7090 0
M  V30 2993 C  9.8200 15.0890 33.4570 0
M  V30 2994 N  10.9840 14.2660 33.0630 0
M  V30 2995 C  11.0610 12.9360 32.8870 0
M  V30 2996 N  12.2180 12.4230 32.5460 0
M  V30 2997 N  10.0460 12.0940 33.0390 0 CHG=1
M  V30 2998 H  7.8970 13.6810 29.9340 0
M  V30 2999 H  7.3670 12.3400 32.5610 0
M  V30 3000 H  6.6210 15.0150 32.8240 0
M  V30 3001 H  7.9400 15.1520 31.7650 0
M  V30 3002 H  8.6470 13.3810 33.9850 0
M  V30 3003 H  8.0130 14.8760 34.5800 0
M  V30 3004 H  10.0880 15.6880 34.3270 0
M  V30 3005 H  9.6870 15.8870 32.7260 0
M  V30 3006 H  11.8010 14.8420 32.9210 0
M  V30 3007 H  12.3070 11.4260 32.4070 0
M  V30 3008 H  13.0210 13.0240 32.4230 0
M  V30 3009 H  10.1840 11.1050 32.8880 0
M  V30 3010 H  9.1360 12.4420 33.3050 0
M  V30 3011 N  4.8750 12.4500 32.3230 0
M  V30 3012 C  3.4360 12.5540 32.1710 0 CFG=2
M  V30 3013 C  2.9580 13.8820 32.7280 0
M  V30 3014 O  3.6530 14.5580 33.5140 0
M  V30 3015 C  2.7410 11.4370 32.9130 0
M  V30 3016 O  3.0140 11.5550 34.2790 0
M  V30 3017 H  5.2620 11.8590 33.0460 0
M  V30 3018 H  3.1820 12.4960 31.1120 0
M  V30 3019 H  3.1080 10.4770 32.5510 0
M  V30 3020 H  1.6650 11.5080 32.7500 0
M  V30 3021 H  3.8770 11.2090 34.5040 0
M  V30 3022 N  1.7480 14.2380 32.3190 0
M  V30 3023 C  1.1090 15.4670 32.7630 0 CFG=2
M  V30 3024 C  1.1170 15.6470 34.2950 0
M  V30 3025 O  1.5000 16.7210 34.7820 0
M  V30 3026 C  -0.3030 15.5460 32.1550 0
M  V30 3027 C  -0.2880 16.0650 30.7190 0
M  V30 3028 O  0.7590 16.1260 30.0590 0
M  V30 3029 N  -1.4330 16.4860 30.2500 0
M  V30 3030 H  1.2380 13.6480 31.6770 0
M  V30 3031 H  1.6830 16.2940 32.3430 0
M  V30 3032 H  -0.9260 16.1960 32.7690 0
M  V30 3033 H  -0.7630 14.5580 32.1790 0
M  V30 3034 H  -1.4920 16.8420 29.3060 0
M  V30 3035 H  -2.2590 16.4560 30.8300 0
M  V30 3036 N  0.8050 14.5950 35.0690 0
M  V30 3037 C  0.7400 14.7580 36.5180 0 CFG=2
M  V30 3038 C  2.1280 14.8630 37.1750 0
M  V30 3039 O  2.2860 15.4790 38.2020 0
M  V30 3040 C  -0.1080 13.6520 37.1600 0
M  V30 3041 O  0.5700 12.4420 37.0160 0
M  V30 3042 H  0.6170 13.6960 34.6470 0
M  V30 3043 H  0.2270 15.7010 36.7080 0
M  V30 3044 H  -1.0710 13.5920 36.6520 0
M  V30 3045 H  -0.2440 13.8680 38.2200 0
M  V30 3046 H  1.3450 12.4320 37.5720 0
M  V30 3047 N  3.1420 14.2810 36.5500 0
M  V30 3048 C  4.5220 14.4300 37.0120 0 CFG=2
M  V30 3049 C  5.0540 15.8630 36.7570 0
M  V30 3050 O  5.7420 16.4630 37.6000 0
M  V30 3051 C  5.4120 13.4230 36.2860 0
M  V30 3052 C  5.3240 12.0020 36.8070 0
M  V30 3053 C  6.1170 11.0400 35.9260 0
M  V30 3054 O  6.7620 11.5160 34.9770 0
M  V30 3055 O  6.0970 9.8160 36.1710 0 CHG=-1
M  V30 3056 H  2.9720 13.7150 35.7310 0
M  V30 3057 H  4.5590 14.2260 38.0820 0
M  V30 3058 H  6.4480 13.7590 36.3290 0
M  V30 3059 H  5.1740 13.4320 35.2220 0
M  V30 3060 H  4.2800 11.6900 36.8360 0
M  V30 3061 H  5.7110 11.9640 37.8250 0
M  V30 3062 N  4.7390 16.4070 35.5940 0
M  V30 3063 C  5.0710 17.8190 35.3130 0 CFG=2
M  V30 3064 C  4.4950 18.6960 36.4550 0
M  V30 3065 O  5.2340 19.4400 37.1230 0
M  V30 3066 C  4.5660 18.2740 33.9370 0
M  V30 3067 C  4.7970 19.7580 33.7700 0
M  V30 3068 C  5.3130 17.5570 32.8020 0
M  V30 3069 H  4.2670 15.8570 34.8900 0
M  V30 3070 H  6.1560 17.9200 35.3240 0
M  V30 3071 H  3.4990 18.0640 33.8560 0
M  V30 3072 H  4.4370 20.0750 32.7910 0
M  V30 3073 H  4.2590 20.3000 34.5480 0
M  V30 3074 H  5.8630 19.9710 33.8510 0
M  V30 3075 H  4.9310 17.9010 31.8400 0
M  V30 3076 H  6.3780 17.7790 32.8700 0
M  V30 3077 H  5.1610 16.4810 32.8880 0
M  V30 3078 N  3.1920 18.5080 36.7020 0
M  V30 3079 C  2.4070 19.2160 37.7100 0 CFG=2
M  V30 3080 C  3.0140 19.1290 39.0950 0
M  V30 3081 O  3.1920 20.1420 39.7630 0
M  V30 3082 C  0.9540 18.6780 37.7100 0
M  V30 3083 C  0.2050 19.0200 39.0120 0
M  V30 3084 C  0.2220 19.2370 36.4880 0
M  V30 3085 H  2.6700 17.8280 36.1670 0
M  V30 3086 H  2.3730 20.2680 37.4270 0
M  V30 3087 H  0.9930 17.5920 37.6150 0
M  V30 3088 H  -0.8080 18.6220 38.9650 0
M  V30 3089 H  0.7290 18.5770 39.8600 0
M  V30 3090 H  0.1650 20.1020 39.1350 0
M  V30 3091 H  -0.8030 18.8660 36.4760 0
M  V30 3092 H  0.2130 20.3260 36.5370 0
M  V30 3093 H  0.7340 18.9190 35.5800 0
M  V30 3094 N  3.3700 17.9140 39.4970 0
M  V30 3095 C  3.9900 17.6460 40.7950 0 CFG=2
M  V30 3096 C  5.4150 18.2280 40.8430 0
M  V30 3097 O  5.7560 18.9310 41.7770 0
M  V30 3098 C  3.9050 16.1180 41.0700 0
M  V30 3099 C  5.0540 15.4240 41.8120 0
M  V30 3100 C  5.0090 13.8550 41.7220 0
M  V30 3101 O  5.0130 13.2450 40.6060 0
M  V30 3102 O  5.0050 13.2080 42.8020 0 CHG=-1
M  V30 3103 H  3.2150 17.1170 38.8950 0
M  V30 3104 H  3.3980 18.1540 41.5570 0
M  V30 3105 H  3.7250 15.5970 40.1290 0
M  V30 3106 H  2.9680 15.9010 41.5830 0
M  V30 3107 H  5.0420 15.7270 42.8600 0
M  V30 3108 H  6.0060 15.7820 41.4200 0
M  V30 3109 N  6.2500 17.9660 39.8300 0
M  V30 3110 C  7.6060 18.5840 39.7680 0 CFG=2
M  V30 3111 C  7.5360 20.1380 39.8000 0
M  V30 3112 O  8.2400 20.8020 40.6090 0
M  V30 3113 C  8.3990 18.1160 38.5380 0
M  V30 3114 C  8.7120 16.5760 38.5600 0
M  V30 3115 O  8.9340 16.0310 39.6570 0
M  V30 3116 O  8.7140 15.9170 37.4810 0 CHG=-1
M  V30 3117 H  5.9660 17.3390 39.0900 0
M  V30 3118 H  8.1540 18.2630 40.6540 0
M  V30 3119 H  9.3330 18.6740 38.4750 0
M  V30 3120 H  7.8420 18.3590 37.6340 0
M  V30 3121 N  6.7190 20.7470 38.9370 0
M  V30 3122 C  6.6380 22.2220 38.9860 0 CFG=2
M  V30 3123 C  6.2840 22.6900 40.4220 0
M  V30 3124 O  6.9410 23.5770 40.9580 0
M  V30 3125 C  5.5980 22.7780 38.0200 0 CFG=2
M  V30 3126 C  6.0460 22.5980 36.5580 0
M  V30 3127 C  5.2770 24.2350 38.3380 0
M  V30 3128 C  7.3920 23.2080 36.2260 0
M  V30 3129 H  6.1800 20.2010 38.2800 0
M  V30 3130 H  7.6120 22.6320 38.7190 0
M  V30 3131 H  4.6820 22.2030 38.1560 0
M  V30 3132 H  5.2890 23.0150 35.8940 0
M  V30 3133 H  6.0610 21.5360 36.3130 0
M  V30 3134 H  4.5330 24.6060 37.6330 0
M  V30 3135 H  4.8850 24.3090 39.3520 0
M  V30 3136 H  6.1850 24.8340 38.2550 0
M  V30 3137 H  7.6220 23.0310 35.1760 0
M  V30 3138 H  7.3620 24.2810 36.4150 0
M  V30 3139 H  8.1610 22.7510 36.8490 0
M  V30 3140 N  5.2670 22.0690 41.0430 0
M  V30 3141 C  4.8700 22.4250 42.4300 0 CFG=2
M  V30 3142 C  6.0060 22.3630 43.4360 0
M  V30 3143 O  5.9930 23.0720 44.3960 0
M  V30 3144 C  3.7290 21.5150 42.9290 0
M  V30 3145 O  2.5500 21.7260 42.1510 0
M  V30 3146 H  4.7530 21.3420 40.5670 0
M  V30 3147 H  4.4950 23.4480 42.4150 0
M  V30 3148 H  3.5180 21.7370 43.9750 0
M  V30 3149 H  4.0340 20.4720 42.8490 0
M  V30 3150 H  2.6790 21.2640 41.3260 0
M  V30 3151 N  6.9600 21.4730 43.2310 0
M  V30 3152 C  8.0770 21.2750 44.1400 0 CFG=2
M  V30 3153 C  9.2070 22.2670 43.8830 0
M  V30 3154 O  10.1900 22.2800 44.6350 0
M  V30 3155 C  8.7390 19.8610 43.9320 0 CFG=2
M  V30 3156 O  7.8220 18.9390 43.3200 0
M  V30 3157 C  9.2580 19.2740 45.2570 0
M  V30 3158 H  6.9360 20.8860 42.4090 0
M  V30 3159 H  7.7320 21.3710 45.1690 0
M  V30 3160 H  9.5900 19.9830 43.2620 0
M  V30 3161 H  8.2630 18.2350 42.8620 0
M  V30 3162 H  9.7080 18.2980 45.0720 0
M  V30 3163 H  10.0060 19.9430 45.6830 0
M  V30 3164 H  8.4290 19.1640 45.9560 0
M  V30 3165 N  9.1590 23.0380 42.7990 0
M  V30 3166 C  10.2410 23.9860 42.5170 0
M  V30 3167 C  11.1610 23.5840 41.3550 0
M  V30 3168 O  12.0220 24.3740 40.9430 0
M  V30 3169 H  8.3740 22.9710 42.1670 0
M  V30 3170 H  10.8390 24.1300 43.4170 0
M  V30 3171 H  9.8160 24.9690 42.3160 0
M  V30 3172 N  10.9740 22.3750 40.8160 0
M  V30 3173 C  11.6280 21.9570 39.5620 0 CFG=2
M  V30 3174 C  11.3510 22.8970 38.3530 0
M  V30 3175 O  10.1980 23.3540 38.1570 0
M  V30 3176 C  11.2320 20.5090 39.2210 0
M  V30 3177 C  11.9390 19.9490 37.9950 0
M  V30 3178 C  13.2500 19.4610 38.0720 0
M  V30 3179 C  11.2910 19.9040 36.7470 0
M  V30 3180 C  13.8970 18.9660 36.9400 0
M  V30 3181 C  11.9450 19.3970 35.6090 0
M  V30 3182 C  13.2450 18.9250 35.7120 0
M  V30 3183 H  10.3660 21.7090 41.2700 0
M  V30 3184 H  12.7030 21.9650 39.7400 0
M  V30 3185 H  10.1530 20.4540 39.0730 0
M  V30 3186 H  11.4330 19.8670 40.0780 0
M  V30 3187 H  13.7730 19.4640 39.0170 0
M  V30 3188 H  10.2760 20.2610 36.6520 0
M  V30 3189 H  14.9150 18.6110 37.0110 0
M  V30 3190 H  11.4340 19.3760 34.6570 0
M  V30 3191 H  13.7510 18.5270 34.8450 0
M  V30 3192 N  12.4170 23.1660 37.5770 0
M  V30 3193 C  12.3730 23.9820 36.3750 0 CFG=2
M  V30 3194 C  13.2120 23.3860 35.2630 0
M  V30 3195 O  14.1770 22.6630 35.4890 0
M  V30 3196 C  12.8220 25.4370 36.6270 0
M  V30 3197 C  11.9780 26.2040 37.6480 0
M  V30 3198 C  10.5550 26.3330 37.2320 0
M  V30 3199 N  9.7720 27.1850 38.1360 0
M  V30 3200 C  8.9070 26.7690 39.0750 0
M  V30 3201 N  8.7300 25.4600 39.3730 0
M  V30 3202 N  8.2130 27.6820 39.7400 0 CHG=1
M  V30 3203 H  13.3240 22.7920 37.8180 0
M  V30 3204 H  11.3390 24.0090 36.0310 0
M  V30 3205 H  12.8280 25.9810 35.6820 0
M  V30 3206 H  13.8650 25.4430 36.9430 0
M  V30 3207 H  12.4030 27.1970 37.7970 0
M  V30 3208 H  12.0300 25.6990 38.6130 0
M  V30 3209 H  10.1010 25.3430 37.1840 0
M  V30 3210 H  10.5080 26.7380 36.2210 0
M  V30 3211 H  9.9340 28.1720 38.0010 0
M  V30 3212 H  8.0680 25.1890 40.0870 0
M  V30 3213 H  9.2580 24.7540 38.8810 0
M  V30 3214 H  7.5550 27.3980 40.4520 0
M  V30 3215 H  8.3420 28.6630 39.5350 0
M  V30 3216 N  12.8220 23.6860 34.0380 0
M  V30 3217 C  13.5590 23.1890 32.9040 0 CFG=2
M  V30 3218 C  15.0300 23.5590 33.0740 0
M  V30 3219 O  15.3410 24.6250 33.5610 0
M  V30 3220 C  12.9770 23.6900 31.5790 0
M  V30 3221 C  11.6330 23.0700 31.1810 0
M  V30 3222 C  10.9490 23.9590 30.1610 0
M  V30 3223 C  11.7960 21.6630 30.6460 0
M  V30 3224 H  12.0060 24.2640 33.8940 0
M  V30 3225 H  13.4860 22.1010 32.9100 0
M  V30 3226 H  13.7010 23.5230 30.7810 0
M  V30 3227 H  12.8770 24.7750 31.6160 0
M  V30 3228 H  11.0030 23.0260 32.0690 0
M  V30 3229 H  9.9930 23.5190 29.8780 0
M  V30 3230 H  10.7810 24.9450 30.5930 0
M  V30 3231 H  11.5810 24.0530 29.2780 0
M  V30 3232 H  10.8190 21.2610 30.3760 0
M  V30 3233 H  12.4370 21.6800 29.7660 0
M  V30 3234 H  12.2480 21.0330 31.4130 0
M  V30 3235 N  15.9090 22.6250 32.7000 0
M  V30 3236 C  17.3460 22.8080 32.7380 0 CFG=2
M  V30 3237 C  17.8110 23.8550 31.7340 0
M  V30 3238 O  17.1020 24.1650 30.7730 0
M  V30 3239 C  18.0610 21.4940 32.4530 0
M  V30 3240 C  17.9010 20.9350 31.0650 0
M  V30 3241 C  18.7220 21.3590 30.0180 0
M  V30 3242 C  16.9370 19.9710 30.7950 0
M  V30 3243 C  18.5750 20.8440 28.7440 0
M  V30 3244 C  16.7900 19.4370 29.5310 0
M  V30 3245 C  17.6110 19.8690 28.5010 0
M  V30 3246 O  17.4430 19.3340 27.2200 0
M  V30 3247 H  15.5830 21.7290 32.3670 0
M  V30 3248 H  17.6250 23.1420 33.7380 0
M  V30 3249 H  17.7430 20.7460 33.1800 0
M  V30 3250 H  19.1230 21.6070 32.6750 0
M  V30 3251 H  19.4860 22.1000 30.1970 0
M  V30 3252 H  16.2850 19.6240 31.5830 0
M  V30 3253 H  19.2070 21.1980 27.9420 0
M  V30 3254 H  16.0380 18.6850 29.3460 0
M  V30 3255 H  17.6890 19.9420 26.5410 0
M  V30 3256 N  19.0120 24.3880 31.9590 0
M  V30 3257 C  19.5740 25.4180 31.0980 0 CFG=2
M  V30 3258 C  20.0880 24.7840 29.8070 0
M  V30 3259 O  21.0470 23.9780 29.8500 0
M  V30 3260 C  20.7080 26.1720 31.8170 0
M  V30 3261 C  21.2630 27.3380 30.9990 0
M  V30 3262 C  22.4100 28.1020 31.6880 0
M  V30 3263 C  23.7970 27.6500 31.2210 0
M  V30 3264 N  23.9370 27.3930 29.7260 0 CHG=1
M  V30 3265 H  19.5620 24.0790 32.7470 0
M  V30 3266 H  18.7870 26.1290 30.8480 0
M  V30 3267 H  21.5150 25.4770 32.0500 0
M  V30 3268 H  20.3460 26.5430 32.7760 0
M  V30 3269 H  20.4560 28.0320 30.7650 0
M  V30 3270 H  21.6050 26.9710 30.0310 0
M  V30 3271 H  22.3320 27.9750 32.7680 0
M  V30 3272 H  22.2960 29.1700 31.5030 0
M  V30 3273 H  24.0870 26.7540 31.7690 0
M  V30 3274 H  24.5390 28.3860 31.5310 0
M  V30 3275 H  23.7290 28.2400 29.2170 0
M  V30 3276 H  24.8820 27.1020 29.5220 0
M  V30 3277 H  23.2940 26.6660 29.4480 0
M  V30 3278 N  19.5000 25.1700 28.6490 0
M  V30 3279 C  20.1300 24.7600 27.3950 0 CFG=2
M  V30 3280 C  21.5500 25.2690 27.2390 0
M  V30 3281 O  21.8660 26.4110 27.5950 0
M  V30 3282 C  19.2300 25.3560 26.3100 0
M  V30 3283 C  17.9450 25.7010 27.0160 0
M  V30 3284 C  18.3400 26.0500 28.4110 0
M  V30 3285 H  20.1210 23.6730 27.3200 0
M  V30 3286 H  19.0330 24.6010 25.5490 0
M  V30 3287 H  19.6860 26.2670 25.9230 0
M  V30 3288 H  17.2950 24.8260 27.0330 0
M  V30 3289 H  17.4930 26.5710 26.5400 0
M  V30 3290 H  18.6660 27.0900 28.4430 0
M  V30 3291 H  17.5350 25.7750 29.0920 0
M  V30 3292 N  22.3770 24.4250 26.6660 0
M  V30 3293 C  23.7580 24.7520 26.3750 0 CFG=2
M  V30 3294 C  23.9800 26.0830 25.7250 0
M  V30 3295 O  24.8330 26.8110 26.1850 0
M  V30 3296 C  24.4530 23.6230 25.6080 0
M  V30 3297 C  24.4490 22.3660 26.4540 0
M  V30 3298 C  25.4730 21.3490 25.9480 0
M  V30 3299 N  25.1970 20.9110 24.5610 0
M  V30 3300 C  24.2280 20.0620 24.2020 0
M  V30 3301 N  23.3670 19.5420 25.1000 0
M  V30 3302 N  24.1270 19.7270 22.9230 0 CHG=1
M  V30 3303 H  22.0590 23.5010 26.4100 0
M  V30 3304 H  24.2590 24.8070 27.3420 0
M  V30 3305 H  25.4810 23.9110 25.3910 0
M  V30 3306 H  23.9190 23.4350 24.6760 0
M  V30 3307 H  23.4550 21.9200 26.4360 0
M  V30 3308 H  24.6750 22.6240 27.4880 0
M  V30 3309 H  25.4780 20.4810 26.6070 0
M  V30 3310 H  26.4710 21.7830 25.9990 0
M  V30 3311 H  25.8080 21.3070 23.8600 0
M  V30 3312 H  22.6460 18.9020 24.7960 0
M  V30 3313 H  23.4420 19.7910 26.0750 0
M  V30 3314 H  23.4050 19.0870 22.6240 0
M  V30 3315 H  24.7720 20.1120 22.2480 0
M  V30 3316 N  23.2140 26.4390 24.7110 0
M  V30 3317 C  23.3580 27.7730 24.0310 0 CFG=2
M  V30 3318 C  22.7800 29.0200 24.7840 0
M  V30 3319 O  22.9810 30.1360 24.3720 0
M  V30 3320 C  22.7180 27.7070 22.6390 0
M  V30 3321 C  23.4310 26.7270 21.6960 0
M  V30 3322 C  22.5030 26.5050 20.4780 0
M  V30 3323 C  24.8940 27.1630 21.3250 0
M  V30 3324 H  22.5040 25.8080 24.3680 0
M  V30 3325 H  24.4240 27.9480 23.8880 0
M  V30 3326 H  22.7170 28.7020 22.1940 0
M  V30 3327 H  21.6710 27.4210 22.7350 0
M  V30 3328 H  23.5040 25.7750 22.2200 0
M  V30 3329 H  22.9760 25.8120 19.7820 0
M  V30 3330 H  21.5540 26.0900 20.8150 0
M  V30 3331 H  22.3260 27.4570 19.9780 0
M  V30 3332 H  25.3360 26.4240 20.6570 0
M  V30 3333 H  24.8710 28.1330 20.8290 0
M  V30 3334 H  25.4930 27.2340 22.2330 0
M  V30 3335 N  22.0120 28.8140 25.8420 0
M  V30 3336 C  21.4870 29.9110 26.6180 0 CFG=2
M  V30 3337 C  22.6160 30.3170 27.5890 0
M  V30 3338 O  23.2690 29.4540 28.2210 0
M  V30 3339 C  20.2330 29.4910 27.3680 0
M  V30 3340 H  21.7810 27.8720 26.1220 0
M  V30 3341 H  21.2550 30.7470 25.9580 0
M  V30 3342 H  19.8550 30.3340 27.9460 0
M  V30 3343 H  19.4730 29.1690 26.6560 0
M  V30 3344 H  20.4710 28.6670 28.0410 0
M  V30 3345 N  22.9110 31.6240 27.6470 0
M  V30 3346 C  23.7980 32.1250 28.6490 0 CFG=2
M  V30 3347 C  23.0820 32.0720 30.0070 0
M  V30 3348 O  21.8200 31.9160 30.1020 0
M  V30 3349 C  24.1860 33.5780 28.3530 0
M  V30 3350 O  23.0640 34.4220 28.4760 0
M  V30 3351 H  22.5050 32.2630 26.9790 0
M  V30 3352 H  24.6960 31.5070 28.6850 0
M  V30 3353 H  24.5840 33.6480 27.3410 0
M  V30 3354 H  24.9590 33.8970 29.0520 0
M  V30 3355 H  23.2930 35.2620 28.0860 0
M  V30 3356 N  23.8890 32.3030 31.0400 0
M  V30 3357 C  23.3900 32.5210 32.3890 0 CFG=2
M  V30 3358 C  22.3490 33.6270 32.4210 0
M  V30 3359 O  21.2640 33.4880 33.0440 0
M  V30 3360 C  24.5610 32.9330 33.2930 0 CFG=2
M  V30 3361 O  25.5680 31.9270 33.1810 0
M  V30 3362 C  24.1200 33.1030 34.7660 0
M  V30 3363 H  24.8890 32.3320 30.9030 0
M  V30 3364 H  22.9500 31.5980 32.7650 0
M  V30 3365 H  24.9660 33.8790 32.9350 0
M  V30 3366 H  26.3040 32.1630 33.7330 0
M  V30 3367 H  24.9790 33.3950 35.3710 0
M  V30 3368 H  23.3530 33.8750 34.8290 0
M  V30 3369 H  23.7180 32.1610 35.1370 0
M  V30 3370 N  22.6340 34.7310 31.7400 0
M  V30 3371 C  21.6690 35.8460 31.7610 0 CFG=2
M  V30 3372 C  20.3280 35.5090 31.1390 0
M  V30 3373 O  19.2750 35.9510 31.6310 0
M  V30 3374 C  22.2590 37.1240 31.1630 0
M  V30 3375 C  23.6260 37.4480 31.6900 0
M  V30 3376 N  24.8470 37.3710 31.1080 0
M  V30 3377 C  23.8460 37.8470 32.9940 0
M  V30 3378 C  25.7700 37.7460 32.0630 0
M  V30 3379 N  25.1410 38.0110 33.1950 0
M  V30 3380 H  23.4990 34.7960 31.2220 0
M  V30 3381 H  21.4730 36.0620 32.8110 0
M  V30 3382 H  21.5880 37.9600 31.3610 0
M  V30 3383 H  22.3030 37.0300 30.0780 0
M  V30 3384 H  23.0660 37.9680 33.6240 0
M  V30 3385 H  26.7520 37.7790 31.8310 0
M  V30 3386 H  25.5030 38.3140 34.1660 0
M  V30 3387 N  20.3620 34.7290 30.0600 0
M  V30 3388 C  19.1510 34.3360 29.3810 0 CFG=2
M  V30 3389 C  18.3710 33.3650 30.2830 0
M  V30 3390 O  17.1350 33.4390 30.4140 0
M  V30 3391 C  19.4580 33.6630 28.0360 0
M  V30 3392 C  18.1830 33.0450 27.4550 0
M  V30 3393 C  20.0430 34.6560 27.0530 0
M  V30 3394 H  21.2480 34.4000 29.7020 0
M  V30 3395 H  18.5420 35.2220 29.2030 0
M  V30 3396 H  20.1850 32.8680 28.2020 0
M  V30 3397 H  18.4100 32.5700 26.5010 0
M  V30 3398 H  17.7910 32.3000 28.1480 0
M  V30 3399 H  17.4370 33.8260 27.3030 0
M  V30 3400 H  20.2510 34.1540 26.1080 0
M  V30 3401 H  19.3310 35.4640 26.8850 0
M  V30 3402 H  20.9690 35.0660 27.4570 0
M  V30 3403 N  19.0940 32.4380 30.8920 0
M  V30 3404 C  18.4360 31.4680 31.7190 0 CFG=2
M  V30 3405 C  17.7770 32.1260 32.9590 0
M  V30 3406 O  16.6640 31.7590 33.3480 0
M  V30 3407 C  19.4280 30.3930 32.1230 0
M  V30 3408 C  18.8010 29.1960 32.8240 0
M  V30 3409 C  17.8850 28.3720 32.1680 0
M  V30 3410 C  19.2100 28.8300 34.1300 0
M  V30 3411 C  17.3500 27.2450 32.8150 0
M  V30 3412 C  18.6680 27.7160 34.7650 0
M  V30 3413 C  17.7300 26.9340 34.0880 0
M  V30 3414 O  17.1920 25.8550 34.7230 0
M  V30 3415 H  20.0960 32.4200 30.7710 0
M  V30 3416 H  17.6500 30.9980 31.1280 0
M  V30 3417 H  20.1910 30.8300 32.7680 0
M  V30 3418 H  19.9710 30.0520 31.2410 0
M  V30 3419 H  17.5830 28.5990 31.1560 0
M  V30 3420 H  19.9540 29.4180 34.6470 0
M  V30 3421 H  16.6340 26.6180 32.3040 0
M  V30 3422 H  18.9730 27.4650 35.7700 0
M  V30 3423 H  16.4490 25.4280 34.2740 0
M  V30 3424 N  18.4450 33.1180 33.5340 0
M  V30 3425 C  17.8270 33.9480 34.5630 0 CFG=2
M  V30 3426 C  16.5310 34.6380 34.0700 0
M  V30 3427 O  15.5290 34.6930 34.8020 0
M  V30 3428 C  18.8390 34.9800 35.1030 0
M  V30 3429 C  19.8440 34.3160 36.0360 0
M  V30 3430 C  21.1170 35.1200 36.3150 0
M  V30 3431 O  21.2400 36.3110 36.0080 0
M  V30 3432 N  22.0730 34.4500 36.9260 0
M  V30 3433 H  19.3980 33.3110 33.2620 0
M  V30 3434 H  17.5550 33.2930 35.3910 0
M  V30 3435 H  18.3060 35.7630 35.6410 0
M  V30 3436 H  19.3680 35.4400 34.2680 0
M  V30 3437 H  20.1150 33.3390 35.6370 0
M  V30 3438 H  19.3540 34.0780 36.9810 0
M  V30 3439 H  22.9470 34.9060 37.1480 0
M  V30 3440 H  21.9320 33.4810 37.1730 0
M  V30 3441 N  16.5130 35.1250 32.8370 0
M  V30 3442 C  15.2380 35.6790 32.3270 0 CFG=2
M  V30 3443 C  14.2000 34.5540 32.2260 0
M  V30 3444 O  13.0580 34.7130 32.7260 0
M  V30 3445 C  15.3880 36.3830 30.9840 0 CFG=2
M  V30 3446 C  16.2630 37.5960 31.1720 0
M  V30 3447 C  14.0130 36.7710 30.4400 0
M  V30 3448 C  16.7630 38.1720 29.8790 0
M  V30 3449 H  17.3520 35.1110 32.2760 0
M  V30 3450 H  14.8750 36.4090 33.0510 0
M  V30 3451 H  15.8690 35.7050 30.2800 0
M  V30 3452 H  17.1110 37.3360 31.8040 0
M  V30 3453 H  15.7100 38.3600 31.7180 0
M  V30 3454 H  14.1300 37.2740 29.4800 0
M  V30 3455 H  13.4080 35.8740 30.3080 0
M  V30 3456 H  13.5190 37.4420 31.1430 0
M  V30 3457 H  17.3860 39.0420 30.0850 0
M  V30 3458 H  17.3510 37.4220 29.3500 0
M  V30 3459 H  15.9160 38.4700 29.2620 0
M  V30 3460 N  14.6030 33.4000 31.6780 0
M  V30 3461 C  13.7290 32.2410 31.7240 0 CFG=2
M  V30 3462 C  13.1330 31.9890 33.0980 0
M  V30 3463 O  11.9230 31.8220 33.2280 0
M  V30 3464 C  14.4280 30.9930 31.2350 0
M  V30 3465 C  14.6860 30.9460 29.7140 0
M  V30 3466 S  15.4170 29.3330 29.2750 0
M  V30 3467 C  16.5020 29.7890 27.9520 0
M  V30 3468 H  15.5100 33.3400 31.2380 0
M  V30 3469 H  12.9000 32.4350 31.0430 0
M  V30 3470 H  13.8490 30.1170 31.5290 0
M  V30 3471 H  15.3730 30.8770 31.7650 0
M  V30 3472 H  15.3750 31.7440 29.4380 0
M  V30 3473 H  13.7430 31.0750 29.1820 0
M  V30 3474 H  17.0180 28.9030 27.5830 0
M  V30 3475 H  15.9220 30.2350 27.1440 0
M  V30 3476 H  17.2340 30.5110 28.3150 0
M  V30 3477 N  13.9610 31.9350 34.1320 0
M  V30 3478 C  13.4510 31.5980 35.4680 0 CFG=2
M  V30 3479 C  12.5550 32.6190 36.1120 0
M  V30 3480 O  11.7280 32.2490 36.9600 0
M  V30 3481 C  14.5600 31.2400 36.4090 0
M  V30 3482 C  14.9690 29.7680 36.2800 0
M  V30 3483 O  14.2660 28.8740 36.7470 0
M  V30 3484 N  16.0850 29.5290 35.6310 0
M  V30 3485 H  14.9440 32.1250 34.0030 0
M  V30 3486 H  12.8490 30.6970 35.3470 0
M  V30 3487 H  14.2450 31.4400 37.4330 0
M  V30 3488 H  15.4230 31.8750 36.2110 0
M  V30 3489 H  16.4070 28.5780 35.5140 0
M  V30 3490 H  16.6220 30.2940 35.2500 0
M  V30 3491 N  12.6910 33.8880 35.6960 0
M  V30 3492 C  11.7140 34.9210 36.0380 0 CFG=2
M  V30 3493 C  10.3060 34.7090 35.4530 0
M  V30 3494 O  9.3050 34.9360 36.1690 0
M  V30 3495 C  12.2320 36.3190 35.7580 0
M  V30 3496 C  13.1540 36.8120 36.8080 0
M  V30 3497 N  14.4890 37.0820 36.5670 0
M  V30 3498 C  12.9590 37.0090 38.1370 0
M  V30 3499 C  15.0690 37.4400 37.7020 0
M  V30 3500 N  14.1610 37.4100 38.6680 0
M  V30 3501 H  13.4850 34.1510 35.1290 0
M  V30 3502 H  11.5940 34.8650 37.1200 0
M  V30 3503 H  11.3910 37.0050 35.6620 0
M  V30 3504 H  12.7430 36.3290 34.7940 0
M  V30 3505 H  14.8630 36.9890 35.6340 0
M  V30 3506 H  11.9840 36.8420 38.5710 0
M  V30 3507 H  16.1180 37.6940 37.7150 0
M  V30 3508 N  10.2150 34.2670 34.2010 0
M  V30 3509 C  8.9230 33.9080 33.6020 0 CFG=2
M  V30 3510 C  8.2660 32.7260 34.3120 0
M  V30 3511 O  7.0770 32.6400 34.3200 0
M  V30 3512 C  9.0840 33.5370 32.1170 0
M  V30 3513 S  9.8310 34.8210 31.0960 0
M  V30 3514 H  11.0470 34.1720 33.6370 0
M  V30 3515 H  8.2570 34.7680 33.6730 0
M  V30 3516 H  8.1120 33.2680 31.7050 0
M  V30 3517 H  9.6730 32.6230 32.0350 0
M  V30 3518 H  11.0480 34.7760 31.6500 0
M  V30 3519 N  9.0700 31.8060 34.8500 0
M  V30 3520 C  8.6020 30.6240 35.5860 0 CFG=2
M  V30 3521 C  8.5350 30.8450 37.1260 0
M  V30 3522 O  8.5790 29.8590 37.9280 0
M  V30 3523 C  9.5590 29.4540 35.3360 0
M  V30 3524 C  9.8260 29.1140 33.9310 0
M  V30 3525 C  8.9250 29.1770 32.8650 0
M  V30 3526 C  11.0360 28.5300 33.3920 0
M  V30 3527 N  9.5320 28.7470 31.7240 0
M  V30 3528 C  10.8050 28.3150 31.9980 0
M  V30 3529 C  12.2900 28.2020 33.9340 0
M  V30 3530 C  11.7990 27.8050 31.1340 0
M  V30 3531 C  13.2810 27.6660 33.0760 0
M  V30 3532 C  13.0170 27.4570 31.6870 0
M  V30 3533 H  10.0720 31.8970 34.7650 0
M  V30 3534 H  7.6110 30.3520 35.2250 0
M  V30 3535 H  9.1890 28.5700 35.8560 0
M  V30 3536 H  10.5040 29.6480 35.8440 0
M  V30 3537 H  7.9180 29.5300 33.0300 0
M  V30 3538 H  9.0360 28.7790 30.8450 0
M  V30 3539 H  12.4820 28.3590 34.9850 0
M  V30 3540 H  11.5940 27.6990 30.0790 0
M  V30 3541 H  14.2540 27.4080 33.4690 0
M  V30 3542 H  13.7860 27.0200 31.0670 0
M  V30 3543 N  8.3990 32.0950 37.5540 0
M  V30 3544 C  8.0630 32.3760 38.9650 0 CFG=2
M  V30 3545 C  6.7070 31.7910 39.2570 0
M  V30 3546 O  5.7810 31.9240 38.4720 0
M  V30 3547 C  8.0880 33.8840 39.2770 0
M  V30 3548 C  9.5150 34.4390 39.4510 0
M  V30 3549 C  10.2040 33.9220 40.7290 0
M  V30 3550 C  11.7060 34.2580 40.7900 0
M  V30 3551 N  12.4480 33.3470 41.7030 0 CHG=1
M  V30 3552 H  8.5260 32.8650 36.9130 0
M  V30 3553 H  8.7970 31.8800 39.6010 0
M  V30 3554 H  7.5120 34.0750 40.1830 0
M  V30 3555 H  7.5820 34.4270 38.4790 0
M  V30 3556 H  9.4800 35.5290 39.4740 0
M  V30 3557 H  10.1160 34.1710 38.5820 0
M  V30 3558 H  10.0710 32.8430 40.8000 0
M  V30 3559 H  9.7040 34.3390 41.6030 0
M  V30 3560 H  11.8340 35.2880 41.1230 0
M  V30 3561 H  12.1330 34.1940 39.7900 0
M  V30 3562 H  12.0570 32.4180 41.6440 0
M  V30 3563 H  13.4210 33.3200 41.4350 0
M  V30 3564 H  12.3700 33.6850 42.6520 0
M  V30 3565 N  6.6180 31.0790 40.3680 0
M  V30 3566 C  5.4030 30.3810 40.7820 0 CFG=2
M  V30 3567 C  4.1650 31.2370 40.7340 0
M  V30 3568 O  3.1690 30.7720 40.2480 0
M  V30 3569 C  5.5560 29.8750 42.2070 0
M  V30 3570 C  4.4370 28.9650 42.6510 0
M  V30 3571 C  4.8300 28.1870 43.8920 0
M  V30 3572 O  5.1660 28.8480 44.8870 0
M  V30 3573 O  4.8390 26.9300 43.8540 0 CHG=-1
M  V30 3574 H  7.4170 30.9960 40.9800 0
M  V30 3575 H  5.2560 29.5240 40.1250 0
M  V30 3576 H  5.6230 30.7240 42.8870 0
M  V30 3577 H  6.5070 29.3520 42.3050 0
M  V30 3578 H  4.1950 28.2690 41.8470 0
M  V30 3579 H  3.5480 29.5600 42.8620 0
M  V30 3580 N  4.2270 32.4820 41.2110 0
M  V30 3581 C  3.0600 33.3820 41.1570 0 CFG=2
M  V30 3582 C  3.1520 34.4590 40.0510 0
M  V30 3583 O  4.2310 35.0090 39.7920 0
M  V30 3584 C  2.8090 34.0290 42.5110 0
M  V30 3585 C  2.9760 33.1120 43.7270 0
M  V30 3586 C  3.5290 33.9100 44.9260 0
M  V30 3587 N  3.5150 33.2370 46.2410 0
M  V30 3588 C  3.6200 31.9130 46.4920 0
M  V30 3589 N  3.5440 31.4930 47.7470 0
M  V30 3590 N  3.7730 30.9830 45.5440 0 CHG=1
M  V30 3591 H  5.0850 32.8240 41.6180 0
M  V30 3592 H  2.1900 32.7650 40.9310 0
M  V30 3593 H  1.8090 34.4630 42.5230 0
M  V30 3594 H  3.4600 34.8960 42.6220 0
M  V30 3595 H  3.6640 32.3030 43.4810 0
M  V30 3596 H  2.0100 32.6810 43.9930 0
M  V30 3597 H  2.9960 34.8580 45.0020 0
M  V30 3598 H  4.5450 34.2360 44.7010 0
M  V30 3599 H  3.4130 33.8900 47.0040 0
M  V30 3600 H  3.6210 30.5070 47.9550 0
M  V30 3601 H  3.4100 32.1580 48.4960 0
M  V30 3602 H  3.8460 30.0090 45.7990 0
M  V30 3603 H  3.8160 31.2550 44.5720 0
M  V30 3604 N  1.9980 34.7670 39.4090 0
M  V30 3605 C  2.0080 35.6770 38.2430 0 CFG=2
M  V30 3606 C  2.5190 37.0450 38.6290 0
M  V30 3607 O  3.2970 37.6260 37.8950 0
M  V30 3608 C  0.5290 35.7150 37.7840 0
M  V30 3609 C  -0.2350 35.2990 38.9900 0
M  V30 3610 C  0.6370 34.2440 39.6550 0
M  V30 3611 H  2.6300 35.2580 37.4520 0
M  V30 3612 H  0.3790 34.9820 36.9910 0
M  V30 3613 H  0.2600 36.7380 37.5210 0
M  V30 3614 H  -1.1780 34.8460 38.6820 0
M  V30 3615 H  -0.3450 36.1510 39.6610 0
M  V30 3616 H  0.4420 34.2420 40.7280 0
M  V30 3617 H  0.5160 33.2960 39.1300 0
M  V30 3618 N  2.1460 37.5290 39.7980 0
M  V30 3619 C  2.6240 38.8460 40.2650 0 CFG=2
M  V30 3620 C  4.1560 39.0190 40.3180 0
M  V30 3621 O  4.6120 40.1280 40.3060 0
M  V30 3622 C  1.9500 39.2880 41.5890 0
M  V30 3623 C  2.3650 38.5480 42.8610 0
M  V30 3624 C  1.5700 37.2730 43.1680 0
M  V30 3625 O  0.7720 36.8350 42.2960 0
M  V30 3626 O  1.7470 36.7240 44.3110 0 CHG=-1
M  V30 3627 H  1.5230 36.9980 40.3890 0
M  V30 3628 H  2.2800 39.5590 39.5150 0
M  V30 3629 H  0.8670 39.2280 41.4770 0
M  V30 3630 H  2.1040 40.3580 41.7300 0
M  V30 3631 H  2.2990 39.2270 43.7110 0
M  V30 3632 H  3.4270 38.3060 42.8070 0
M  V30 3633 N  4.9220 37.9260 40.3480 0
M  V30 3634 C  6.4090 37.9530 40.3710 0 CFG=2
M  V30 3635 C  7.0620 37.8650 38.9890 0
M  V30 3636 O  8.2700 38.0270 38.8710 0
M  V30 3637 C  6.9520 36.7790 41.2050 0
M  V30 3638 C  6.5770 36.9000 42.6870 0
M  V30 3639 O  6.4690 38.0450 43.1420 0
M  V30 3640 O  6.3910 35.8640 43.3690 0 CHG=-1
M  V30 3641 H  4.4950 37.0110 40.3550 0
M  V30 3642 H  6.7280 38.8840 40.8410 0
M  V30 3643 H  8.0370 36.7360 41.1090 0
M  V30 3644 H  6.5620 35.8410 40.8080 0
M  V30 3645 N  6.2600 37.5900 37.9710 0
M  V30 3646 C  6.7340 37.4020 36.6370 0 CFG=2
M  V30 3647 C  6.7450 38.7540 35.9590 0
M  V30 3648 O  5.8320 39.5370 36.0930 0
M  V30 3649 C  5.8310 36.4950 35.8240 0
M  V30 3650 C  5.7640 35.0660 36.2950 0
M  V30 3651 C  4.8140 34.2220 35.4480 0
M  V30 3652 N  4.2890 33.1950 36.3510 0
M  V30 3653 C  3.0380 32.7190 36.3770 0
M  V30 3654 N  2.1150 33.0760 35.4860 0
M  V30 3655 N  2.7340 31.8020 37.2820 0 CHG=1
M  V30 3656 H  5.2650 37.5040 38.1220 0
M  V30 3657 H  7.7440 36.9930 36.6580 0
M  V30 3658 H  6.1430 36.5160 34.7800 0
M  V30 3659 H  4.8250 36.9140 35.8020 0
M  V30 3660 H  5.4400 35.0420 37.3360 0
M  V30 3661 H  6.7620 34.6280 36.2660 0
M  V30 3662 H  5.3740 33.7450 34.6440 0
M  V30 3663 H  3.9940 34.8470 35.0940 0
M  V30 3664 H  4.9770 32.8420 37.0010 0
M  V30 3665 H  1.1830 32.6920 35.5430 0
M  V30 3666 H  2.3470 33.7310 34.7540 0
M  V30 3667 H  1.7980 31.4250 37.3250 0
M  V30 3668 H  3.4380 31.4800 37.9310 0
M  V30 3669 N  7.8000 39.0300 35.2130 0
M  V30 3670 C  7.7930 40.2300 34.4240 0 CFG=2
M  V30 3671 C  6.7430 40.2680 33.3120 0
M  V30 3672 O  6.3790 39.2040 32.7340 0
M  V30 3673 C  9.2040 40.2550 33.8320 0
M  V30 3674 C  9.6590 38.8470 33.8420 0
M  V30 3675 C  9.0410 38.2590 35.0880 0
M  V30 3676 H  7.6590 41.0910 35.0770 0
M  V30 3677 H  9.8540 40.8500 34.4740 0
M  V30 3678 H  9.1580 40.6140 32.8040 0
M  V30 3679 H  10.7450 38.8190 33.9300 0
M  V30 3680 H  9.2630 38.3330 32.9660 0
M  V30 3681 H  8.7970 37.2120 34.9080 0
M  V30 3682 H  9.6830 38.4730 35.9420 0
M  V30 3683 N  6.2830 41.4940 33.0060 0
M  V30 3684 C  5.2870 41.7390 31.9580 0 CFG=2
M  V30 3685 C  6.0500 41.7070 30.6220 0
M  V30 3686 O  7.2730 41.9270 30.5920 0
M  V30 3687 C  4.6160 43.1030 32.1830 0
M  V30 3688 H  6.6260 42.3010 33.5070 0
M  V30 3689 H  4.5340 40.9510 31.9730 0
M  V30 3690 H  3.8770 43.2780 31.4010 0
M  V30 3691 H  4.1250 43.1110 33.1560 0
M  V30 3692 H  5.3710 43.8890 32.1520 0
M  V30 3693 N  5.3720 41.4210 29.5110 0
M  V30 3694 C  6.0500 41.4100 28.2070 0 CFG=2
M  V30 3695 C  6.7190 42.7330 27.8820 0
M  V30 3696 O  7.8000 42.7810 27.3290 0
M  V30 3697 C  5.0870 41.0140 27.0870 0
M  V30 3698 C  4.7430 39.5690 27.0880 0
M  V30 3699 C  5.6800 38.6300 26.6760 0
M  V30 3700 C  3.5040 39.1380 27.4950 0
M  V30 3701 C  5.3930 37.3130 26.6880 0
M  V30 3702 C  3.2200 37.8010 27.5270 0
M  V30 3703 C  4.1690 36.8830 27.1190 0
M  V30 3704 H  4.3860 41.2100 29.5610 0
M  V30 3705 H  6.8310 40.6510 28.2510 0
M  V30 3706 H  5.5210 41.2820 26.1240 0
M  V30 3707 H  4.1740 41.6030 27.1710 0
M  V30 3708 H  6.6550 38.9520 26.3400 0
M  V30 3709 H  2.7530 39.8560 27.7890 0
M  V30 3710 H  6.1300 36.5960 26.3560 0
M  V30 3711 H  2.2540 37.4620 27.8720 0
M  V30 3712 H  3.9440 35.8270 27.1400 0
M  V30 3713 N  6.0700 43.8140 28.2370 0
M  V30 3714 C  6.6060 45.1430 27.9550 0 CFG=2
M  V30 3715 C  8.0200 45.2710 28.5160 0
M  V30 3716 O  8.9250 45.8120 27.8260 0
M  V30 3717 C  5.7030 46.2190 28.5580 0
M  V30 3718 O  5.7310 46.1230 29.9670 0
M  V30 3719 H  5.1840 43.7360 28.7150 0
M  V30 3720 H  6.6450 45.2830 26.8740 0
M  V30 3721 H  4.6820 46.0750 28.2050 0
M  V30 3722 H  6.0580 47.2040 28.2530 0
M  V30 3723 H  4.9330 45.6470 30.1860 0
M  V30 3724 N  8.2260 44.7370 29.7300 0
M  V30 3725 C  9.5120 44.9030 30.4010 0 CFG=2
M  V30 3726 C  10.5050 43.8650 29.8950 0
M  V30 3727 O  11.7280 44.1400 29.8370 0
M  V30 3728 C  9.3940 44.8900 31.9570 0
M  V30 3729 C  10.1740 43.7870 32.6050 0
M  V30 3730 C  10.5120 43.9590 34.0770 0
M  V30 3731 N  11.5510 42.9650 34.4110 0
M  V30 3732 C  11.7210 42.3580 35.5860 0
M  V30 3733 N  10.9170 42.6130 36.6380 0
M  V30 3734 N  12.6930 41.4430 35.6880 0 CHG=1
M  V30 3735 H  7.4890 44.2170 30.1850 0
M  V30 3736 H  9.8980 45.8820 30.1170 0
M  V30 3737 H  8.3440 44.8040 32.2390 0
M  V30 3738 H  9.7260 45.8490 32.3530 0
M  V30 3739 H  11.0930 43.6200 32.0430 0
M  V30 3740 H  9.6460 42.8440 32.4660 0
M  V30 3741 H  9.6230 43.7690 34.6780 0
M  V30 3742 H  10.9030 44.9620 34.2450 0
M  V30 3743 H  12.1710 42.7570 33.6410 0
M  V30 3744 H  11.0690 42.1380 37.5160 0
M  V30 3745 H  10.1640 43.2790 36.5480 0
M  V30 3746 H  12.8470 40.9660 36.5650 0
M  V30 3747 H  13.2730 41.2310 34.8890 0
M  V30 3748 N  9.9820 42.6720 29.5670 0
M  V30 3749 C  10.7760 41.6150 28.9660 0 CFG=2
M  V30 3750 C  11.4020 41.9960 27.6000 0
M  V30 3751 O  12.4890 41.5640 27.2580 0
M  V30 3752 C  9.9450 40.3690 28.7760 0
M  V30 3753 C  9.7260 39.4650 29.9630 0
M  V30 3754 C  8.8450 38.3170 29.5070 0
M  V30 3755 C  11.0630 38.9560 30.4830 0
M  V30 3756 H  9.0040 42.4850 29.7370 0
M  V30 3757 H  11.5890 41.3750 29.6520 0
M  V30 3758 H  10.3610 39.7850 27.9550 0
M  V30 3759 H  8.9780 40.6460 28.3550 0
M  V30 3760 H  9.2180 40.0190 30.7520 0
M  V30 3761 H  8.6660 37.6410 30.3430 0
M  V30 3762 H  7.8940 38.7090 29.1470 0
M  V30 3763 H  9.3420 37.7740 28.7020 0
M  V30 3764 H  10.8950 38.3030 31.3400 0
M  V30 3765 H  11.5710 38.3980 29.6970 0
M  V30 3766 H  11.6810 39.8010 30.7860 0
M  V30 3767 N  10.6520 42.7510 26.8200 0
M  V30 3768 C  11.0640 43.2320 25.4980 0 CFG=2
M  V30 3769 C  12.3250 44.1170 25.5700 0
M  V30 3770 O  13.3340 43.8480 24.8750 0
M  V30 3771 C  9.8960 44.0230 24.8720 0
M  V30 3772 C  10.1490 44.6390 23.4970 0
M  V30 3773 C  10.6730 43.5820 22.5440 0
M  V30 3774 C  8.9200 45.3580 22.9410 0
M  V30 3775 H  9.7310 43.0330 27.1240 0
M  V30 3776 H  11.2790 42.3710 24.8650 0
M  V30 3777 H  9.5810 44.8050 25.5640 0
M  V30 3778 H  9.0150 43.3830 24.8220 0
M  V30 3779 H  10.9350 45.3850 23.6160 0
M  V30 3780 H  10.8510 44.0300 21.5660 0
M  V30 3781 H  11.6070 43.1740 22.9320 0
M  V30 3782 H  9.9390 42.7820 22.4490 0
M  V30 3783 H  9.1550 45.7770 21.9620 0
M  V30 3784 H  8.0970 44.6500 22.8440 0
M  V30 3785 H  8.6300 46.1610 23.6190 0
M  V30 3786 N  12.2500 45.1490 26.4230 0
M  V30 3787 C  13.4130 46.0140 26.7480 0 CFG=2
M  V30 3788 C  14.5710 45.2210 27.3170 0
M  V30 3789 O  15.7120 45.3400 26.8270 0
M  V30 3790 C  13.0320 47.1610 27.6480 0
M  V30 3791 C  12.0490 48.1370 26.9890 0
M  V30 3792 C  11.9050 49.4490 27.7590 0
M  V30 3793 N  11.2010 49.2030 29.0130 0
M  V30 3794 C  9.8640 49.1900 29.1800 0
M  V30 3795 N  9.0390 49.4450 28.1730 0
M  V30 3796 N  9.3350 48.9200 30.3800 0 CHG=1
M  V30 3797 H  11.3740 45.3670 26.8760 0
M  V30 3798 H  13.7570 46.4480 25.8100 0
M  V30 3799 H  13.9310 47.7000 27.9480 0
M  V30 3800 H  12.5940 46.7710 28.5670 0
M  V30 3801 H  11.0720 47.6610 26.9000 0
M  V30 3802 H  12.3750 48.3470 25.9710 0
M  V30 3803 H  11.3400 50.1620 27.1580 0
M  V30 3804 H  12.8940 49.8550 27.9710 0
M  V30 3805 H  11.8090 49.0330 29.8010 0
M  V30 3806 H  8.0400 49.4300 28.3220 0
M  V30 3807 H  9.4100 49.6550 27.2570 0
M  V30 3808 H  8.3320 48.9120 30.5000 0
M  V30 3809 H  9.9390 48.7260 31.1660 0
M  V30 3810 N  14.2670 44.3490 28.2710 0
M  V30 3811 C  15.2760 43.5320 28.9010 0 CFG=2
M  V30 3812 C  16.0220 42.6520 27.9330 0
M  V30 3813 O  17.2350 42.6970 27.8900 0
M  V30 3814 C  14.7050 42.6940 30.0250 0
M  V30 3815 C  15.8270 41.9600 30.7550 0
M  V30 3816 C  15.4010 41.3200 32.0630 0
M  V30 3817 O  14.2210 41.1070 32.3060 0
M  V30 3818 N  16.3810 41.0090 32.9130 0
M  V30 3819 H  13.3080 44.2440 28.5720 0
M  V30 3820 H  16.0050 44.2100 29.3450 0
M  V30 3821 H  14.0020 41.9680 29.6160 0
M  V30 3822 H  14.1770 43.3390 30.7270 0
M  V30 3823 H  16.6490 42.6510 30.9420 0
M  V30 3824 H  16.2460 41.1970 30.1000 0
M  V30 3825 H  16.1620 40.5810 33.8010 0
M  V30 3826 H  17.3410 41.2030 32.6680 0
M  V30 3827 N  15.3190 41.8680 27.1300 0
M  V30 3828 C  15.9770 40.9850 26.1420 0 CFG=2
M  V30 3829 C  16.8120 41.7620 25.0860 0
M  V30 3830 O  17.9520 41.3820 24.7610 0
M  V30 3831 C  14.9380 40.1190 25.4400 0
M  V30 3832 C  14.3120 39.0210 26.3110 0
M  V30 3833 C  12.9890 38.5400 25.7420 0
M  V30 3834 C  15.2320 37.8350 26.3970 0
M  V30 3835 H  14.3110 41.8640 27.1850 0
M  V30 3836 H  16.6530 40.3230 26.6830 0
M  V30 3837 H  15.3860 39.6650 24.5550 0
M  V30 3838 H  14.1490 40.7550 25.0390 0
M  V30 3839 H  14.1450 39.4150 27.3140 0
M  V30 3840 H  12.5770 37.7630 26.3860 0
M  V30 3841 H  12.2910 39.3750 25.6880 0
M  V30 3842 H  13.1490 38.1350 24.7430 0
M  V30 3843 H  14.7760 37.0640 27.0170 0
M  V30 3844 H  15.4090 37.4380 25.3970 0
M  V30 3845 H  16.1810 38.1420 26.8380 0
M  V30 3846 N  16.2400 42.8360 24.5570 0
M  V30 3847 C  16.9630 43.7430 23.6580 0 CFG=2
M  V30 3848 C  18.2000 44.3020 24.3770 0
M  V30 3849 O  19.2560 44.4290 23.7660 0
M  V30 3850 C  16.0520 44.8820 23.1980 0
M  V30 3851 H  15.2770 43.0530 24.7700 0
M  V30 3852 H  17.2900 43.1820 22.7830 0
M  V30 3853 H  16.6050 45.5440 22.5320 0
M  V30 3854 H  15.1930 44.4690 22.6680 0
M  V30 3855 H  15.7070 45.4450 24.0650 0
M  V30 3856 N  18.0900 44.5710 25.6860 0
M  V30 3857 C  19.2220 45.1270 26.4330 0 CFG=2
M  V30 3858 C  20.3300 44.1040 26.6290 0
M  V30 3859 O  21.5270 44.4360 26.5740 0
M  V30 3860 C  18.7760 45.6720 27.7890 0
M  V30 3861 H  17.2200 44.3900 26.1670 0
M  V30 3862 H  19.6300 45.9570 25.8560 0
M  V30 3863 H  19.6380 46.0780 28.3200 0
M  V30 3864 H  18.0380 46.4600 27.6400 0
M  V30 3865 H  18.3340 44.8670 28.3770 0
M  V30 3866 N  19.9290 42.8680 26.8900 0
M  V30 3867 C  20.8900 41.7810 27.0250 0 CFG=2
M  V30 3868 C  21.5770 41.4590 25.6880 0
M  V30 3869 O  22.8000 41.2310 25.6520 0
M  V30 3870 C  20.2080 40.5620 27.6620 0 CFG=2
M  V30 3871 C  20.3240 40.7110 29.1760 0
M  V30 3872 C  20.8180 39.2550 27.1910 0
M  V30 3873 C  19.1590 40.1220 29.9160 0
M  V30 3874 H  18.9450 42.6690 26.9970 0
M  V30 3875 H  21.6640 42.1160 27.7160 0
M  V30 3876 H  19.1530 40.5710 27.3900 0
M  V30 3877 H  20.4170 41.7670 29.4300 0
M  V30 3878 H  21.2450 40.2390 29.5180 0
M  V30 3879 H  20.3040 38.4210 27.6680 0
M  V30 3880 H  20.7150 39.1750 26.1090 0
M  V30 3881 H  21.8750 39.2300 27.4570 0
M  V30 3882 H  19.3020 40.2610 30.9880 0
M  V30 3883 H  18.2410 40.6200 29.6050 0
M  V30 3884 H  19.0880 39.0570 29.6940 0
M  V30 3885 N  20.7910 41.4510 24.6090 0
M  V30 3886 C  21.3210 41.4060 23.2380 0 CFG=2
M  V30 3887 C  22.4410 42.4410 23.0460 0
M  V30 3888 O  23.5150 42.1160 22.5300 0
M  V30 3889 C  20.1850 41.5970 22.2050 0
M  V30 3890 H  19.7870 41.4760 24.7160 0
M  V30 3891 H  21.7520 40.4170 23.0800 0
M  V30 3892 H  20.5990 41.5600 21.1980 0
M  V30 3893 H  19.4480 40.8030 22.3240 0
M  V30 3894 H  19.7060 42.5630 22.3660 0
M  V30 3895 N  22.2140 43.6560 23.5330 0
M  V30 3896 C  23.1710 44.7560 23.4250 0 CFG=2
M  V30 3897 C  24.3330 44.7740 24.4550 0
M  V30 3898 O  25.3670 45.3830 24.1970 0
M  V30 3899 C  22.4210 46.0830 23.4820 0
M  V30 3900 H  21.3450 43.8560 24.0070 0
M  V30 3901 H  23.6230 44.6880 22.4360 0
M  V30 3902 H  23.1310 46.9060 23.4010 0
M  V30 3903 H  21.7100 46.1350 22.6570 0
M  V30 3904 H  21.8840 46.1580 24.4280 0
M  V30 3905 N  24.1840 44.1180 25.5980 0
M  V30 3906 C  25.1090 44.3010 26.7280 0 CFG=2
M  V30 3907 C  26.4980 43.6420 26.5750 0
M  V30 3908 O  26.9030 43.2800 25.4820 0
M  V30 3909 C  24.4600 43.7840 28.0140 0
M  V30 3910 O  24.2180 42.3860 27.9310 0
M  V30 3911 H  23.4180 43.4700 25.7120 0
M  V30 3912 H  25.2680 45.3730 26.8500 0
M  V30 3913 H  27.1130 43.5030 27.4520 0
M  V30 3914 H  23.5170 44.3060 28.1790 0
M  V30 3915 H  25.1150 43.9900 28.8600 0
M  V30 3916 H  23.7040 42.1010 28.6670 0
M  V30 3917 C  -1.7210 30.1700 10.8750 0
M  V30 3918 C  -1.3520 29.6720 9.5190 0 CFG=1
M  V30 3919 C  -0.7400 30.7020 8.5800 0
M  V30 3920 C  0.3850 30.1550 7.7810 0
M  V30 3921 N  1.2030 30.8590 6.9510 0
M  V30 3922 N  2.1240 30.0520 6.3660 0
M  V30 3923 C  1.8990 28.8040 6.8200 0
M  V30 3924 C  2.7040 27.6540 6.3980 0
M  V30 3925 O  2.4130 26.4860 6.6070 0
M  V30 3926 N  3.8640 27.9910 5.7410 0
M  V30 3927 C  4.6780 27.0490 5.1290 0
M  V30 3928 C  4.6650 25.6270 5.1440 0
M  V30 3929 N  5.6240 25.0740 4.4040 0
M  V30 3930 N  6.2620 26.1620 3.9350 0
M  V30 3931 C  5.7350 27.3590 4.3310 0
M  V30 3932 C  0.8170 28.8590 7.7280 0
M  V30 3933 C  0.1840 27.7820 8.4970 0
M  V30 3934 C  -0.8460 28.2430 9.4810 0 CFG=2
M  V30 3935 C  -2.1870 28.5960 8.9320 0
M  V30 3936 F  -2.4340 28.7170 7.5630 0
M  V30 3937 F  -3.3460 28.2230 9.5850 0
M  V30 3938 C  -15.3370 22.0491 11.7699 0
M  V30 3939 C  -14.3217 20.9215 12.0630 0
M  V30 3940 C  -14.4111 20.1726 13.3929 0
M  V30 3941 N  -13.3813 19.1364 13.5185 0
M  V30 3942 C  -12.8379 18.7343 14.6819 0
M  V30 3943 N  -13.2324 19.2913 15.8475 0
M  V30 3944 N  -11.8903 17.7759 14.6499 0 CHG=1
M  V30 3945 H  -15.2068 22.7474 12.5966 0
M  V30 3946 H  -16.3086 21.5626 11.8554 0
M  V30 3947 H  -14.4126 20.1438 11.3047 0
M  V30 3948 H  -13.3107 21.3286 12.0459 0
M  V30 3949 H  -14.2838 20.8760 14.2158 0
M  V30 3950 H  -15.3856 19.6912 13.4746 0
M  V30 3951 H  -13.0827 18.7165 12.6498 0
M  V30 3952 H  -12.8212 18.9858 16.7179 0
M  V30 3953 H  -13.9385 20.0134 15.8486 0
M  V30 3954 H  -11.4663 17.4561 15.5090 0
M  V30 3955 H  -11.6044 17.3776 13.7669 0
M  V30 3956 C  -19.7196 23.0071 8.7140 0
M  V30 3957 C  -19.2773 22.3730 7.3856 0
M  V30 3958 C  -20.2646 21.4076 6.7368 0
M  V30 3959 O  -21.3345 21.1723 7.3419 0
M  V30 3960 O  -19.9302 20.9224 5.6358 0 CHG=-1
M  V30 3961 H  -19.9508 22.1732 9.3767 0
M  V30 3962 H  -20.6339 23.5562 8.4892 0
M  V30 3963 H  -19.0976 23.1572 6.6501 0
M  V30 3964 H  -18.3604 21.8045 7.5412 0
M  V30 3965 H  -2.1470 29.3540 11.4588 0
M  V30 3966 H  -0.8315 30.5499 11.3776 0
M  V30 3967 H  -2.4546 30.9707 10.7814 0
M  V30 3968 H  -0.3911 31.5574 9.1585 0
M  V30 3969 H  -1.5097 31.0825 7.9086 0
M  V30 3970 H  1.0741 31.8546 6.8400 0
M  V30 3971 H  4.1531 28.9574 5.6903 0
M  V30 3972 H  3.9203 25.0999 5.7219 0
M  V30 3973 H  5.6927 24.0687 4.3356 0
M  V30 3974 H  5.9839 28.3928 4.1418 0
M  V30 3975 H  0.9522 27.2116 9.0191 0
M  V30 3976 H  -0.2676 27.0657 7.8107 0
M  V30 3977 H  -0.8528 27.7166 10.4355 0
M  V30 END ATOM
M  V30 BEGIN BOND
M  V30 1 1 1 2
M  V30 2 1 1 7
M  V30 3 1 1 8
M  V30 4 1 2 3
M  V30 5 1 2 5
M  V30 6 1 2 9
M  V30 7 2 3 4
M  V30 8 1 3 13
M  V30 9 1 5 6
M  V30 10 1 5 10
M  V30 11 1 5 11
M  V30 12 1 6 12
M  V30 13 1 13 14
M  V30 14 1 13 20
M  V30 15 1 14 15
M  V30 16 1 14 17
M  V30 17 1 14 21
M  V30 18 2 15 16
M  V30 19 1 15 29
M  V30 20 1 17 18
M  V30 21 1 17 19
M  V30 22 1 17 22
M  V30 23 1 18 23
M  V30 24 1 18 24
M  V30 25 1 18 25
M  V30 26 1 19 26
M  V30 27 1 19 27
M  V30 28 1 19 28
M  V30 29 1 29 30
M  V30 30 1 29 37
M  V30 31 1 30 31
M  V30 32 1 30 33
M  V30 33 1 30 38
M  V30 34 2 31 32
M  V30 35 1 31 48
M  V30 36 1 33 34
M  V30 37 1 33 35
M  V30 38 1 33 39
M  V30 39 1 34 36
M  V30 40 1 34 40
M  V30 41 1 34 41
M  V30 42 1 35 42
M  V30 43 1 35 43
M  V30 44 1 35 44
M  V30 45 1 36 45
M  V30 46 1 36 46
M  V30 47 1 36 47
M  V30 48 1 48 49
M  V30 49 1 48 56
M  V30 50 1 49 50
M  V30 51 1 49 52
M  V30 52 1 49 57
M  V30 53 2 50 51
M  V30 54 1 50 60
M  V30 55 1 52 53
M  V30 56 1 52 58
M  V30 57 1 52 59
M  V30 58 2 53 54
M  V30 59 1 53 55
M  V30 60 1 60 61
M  V30 61 1 60 66
M  V30 62 1 61 62
M  V30 63 1 61 64
M  V30 64 1 61 67
M  V30 65 2 62 63
M  V30 66 1 62 74
M  V30 67 1 64 65
M  V30 68 1 64 68
M  V30 69 1 64 69
M  V30 70 1 65 66
M  V30 71 1 65 70
M  V30 72 1 65 71
M  V30 73 1 66 72
M  V30 74 1 66 73
M  V30 75 1 74 75
M  V30 76 1 74 80
M  V30 77 1 75 76
M  V30 78 1 75 78
M  V30 79 1 75 81
M  V30 80 2 76 77
M  V30 81 1 76 85
M  V30 82 1 78 79
M  V30 83 1 78 82
M  V30 84 1 78 83
M  V30 85 1 79 84
M  V30 86 1 85 86
M  V30 87 1 85 94
M  V30 88 1 86 87
M  V30 89 1 86 89
M  V30 90 1 86 95
M  V30 91 2 87 88
M  V30 92 1 87 100
M  V30 93 1 89 90
M  V30 94 1 89 96
M  V30 95 1 89 97
M  V30 96 1 90 91
M  V30 97 1 90 98
M  V30 98 1 90 99
M  V30 99 2 91 92
M  V30 100 1 91 93
M  V30 101 1 100 101
M  V30 102 1 100 108
M  V30 103 1 101 102
M  V30 104 1 101 104
M  V30 105 1 101 109
M  V30 106 2 102 103
M  V30 107 1 102 119
M  V30 108 1 104 105
M  V30 109 1 104 110
M  V30 110 1 104 111
M  V30 111 1 105 106
M  V30 112 1 105 107
M  V30 113 1 105 112
M  V30 114 1 106 113
M  V30 115 1 106 114
M  V30 116 1 106 115
M  V30 117 1 107 116
M  V30 118 1 107 117
M  V30 119 1 107 118
M  V30 120 1 119 120
M  V30 121 1 119 126
M  V30 122 1 120 121
M  V30 123 1 120 123
M  V30 124 1 120 127
M  V30 125 2 121 122
M  V30 126 1 121 133
M  V30 127 1 123 124
M  V30 128 1 123 125
M  V30 129 1 123 128
M  V30 130 1 124 129
M  V30 131 1 125 130
M  V30 132 1 125 131
M  V30 133 1 125 132
M  V30 134 1 133 134
M  V30 135 1 133 144
M  V30 136 1 134 135
M  V30 137 1 134 137
M  V30 138 1 134 145
M  V30 139 2 135 136
M  V30 140 1 135 153
M  V30 141 1 137 138
M  V30 142 1 137 146
M  V30 143 1 137 147
M  V30 144 2 138 139
M  V30 145 1 138 140
M  V30 146 1 139 141
M  V30 147 1 139 148
M  V30 148 2 140 142
M  V30 149 1 140 149
M  V30 150 2 141 143
M  V30 151 1 141 150
M  V30 152 1 142 143
M  V30 153 1 142 151
M  V30 154 1 143 152
M  V30 155 1 153 154
M  V30 156 1 153 160
M  V30 157 1 154 155
M  V30 158 1 154 157
M  V30 159 1 154 161
M  V30 160 2 155 156
M  V30 161 1 155 169
M  V30 162 1 157 158
M  V30 163 1 157 159
M  V30 164 1 157 162
M  V30 165 1 158 163
M  V30 166 1 158 164
M  V30 167 1 158 165
M  V30 168 1 159 166
M  V30 169 1 159 167
M  V30 170 1 159 168
M  V30 171 1 169 170
M  V30 172 1 169 178
M  V30 173 1 170 171
M  V30 174 1 170 173
M  V30 175 1 170 179
M  V30 176 2 171 172
M  V30 177 1 171 186
M  V30 178 1 173 174
M  V30 179 1 173 180
M  V30 180 1 173 181
M  V30 181 1 174 175
M  V30 182 1 174 182
M  V30 183 1 174 183
M  V30 184 2 175 176
M  V30 185 1 175 177
M  V30 186 1 177 184
M  V30 187 1 177 185
M  V30 188 1 186 187
M  V30 189 1 186 195
M  V30 190 1 187 188
M  V30 191 1 187 190
M  V30 192 1 187 196
M  V30 193 2 188 189
M  V30 194 1 188 201
M  V30 195 1 190 191
M  V30 196 1 190 197
M  V30 197 1 190 198
M  V30 198 1 191 192
M  V30 199 1 191 199
M  V30 200 1 191 200
M  V30 201 2 192 193
M  V30 202 1 192 194
M  V30 203 1 201 202
M  V30 204 1 201 209
M  V30 205 1 202 203
M  V30 206 1 202 205
M  V30 207 1 202 210
M  V30 208 2 203 204
M  V30 209 1 203 220
M  V30 210 1 205 206
M  V30 211 1 205 207
M  V30 212 1 205 211
M  V30 213 1 206 208
M  V30 214 1 206 212
M  V30 215 1 206 213
M  V30 216 1 207 214
M  V30 217 1 207 215
M  V30 218 1 207 216
M  V30 219 1 208 217
M  V30 220 1 208 218
M  V30 221 1 208 219
M  V30 222 1 220 221
M  V30 223 1 220 224
M  V30 224 1 221 222
M  V30 225 1 221 225
M  V30 226 1 221 226
M  V30 227 2 222 223
M  V30 228 1 222 227
M  V30 229 1 227 228
M  V30 230 1 227 233
M  V30 231 1 228 229
M  V30 232 1 228 231
M  V30 233 1 228 234
M  V30 234 2 229 230
M  V30 235 1 229 238
M  V30 236 1 231 232
M  V30 237 1 231 235
M  V30 238 1 231 236
M  V30 239 1 232 237
M  V30 240 1 238 239
M  V30 241 1 238 242
M  V30 242 1 239 240
M  V30 243 1 239 243
M  V30 244 1 239 244
M  V30 245 2 240 241
M  V30 246 1 240 245
M  V30 247 1 245 246
M  V30 248 1 245 254
M  V30 249 1 246 247
M  V30 250 1 246 249
M  V30 251 1 246 255
M  V30 252 2 247 248
M  V30 253 1 247 262
M  V30 254 1 249 250
M  V30 255 1 249 256
M  V30 256 1 249 257
M  V30 257 1 250 251
M  V30 258 1 250 258
M  V30 259 1 250 259
M  V30 260 2 251 252
M  V30 261 1 251 253
M  V30 262 1 253 260
M  V30 263 1 253 261
M  V30 264 1 262 263
M  V30 265 1 262 273
M  V30 266 1 263 264
M  V30 267 1 263 266
M  V30 268 1 263 274
M  V30 269 2 264 265
M  V30 270 1 264 282
M  V30 271 1 266 267
M  V30 272 1 266 275
M  V30 273 1 266 276
M  V30 274 2 267 268
M  V30 275 1 267 269
M  V30 276 1 268 270
M  V30 277 1 268 277
M  V30 278 2 269 271
M  V30 279 1 269 278
M  V30 280 2 270 272
M  V30 281 1 270 279
M  V30 282 1 271 272
M  V30 283 1 271 280
M  V30 284 1 272 281
M  V30 285 1 282 283
M  V30 286 1 282 286
M  V30 287 1 283 284
M  V30 288 1 283 287
M  V30 289 1 283 288
M  V30 290 2 284 285
M  V30 291 1 284 289
M  V30 292 1 289 290
M  V30 293 1 289 297
M  V30 294 1 290 291
M  V30 295 1 290 293
M  V30 296 1 290 298
M  V30 297 2 291 292
M  V30 298 1 291 308
M  V30 299 1 293 294
M  V30 300 1 293 299
M  V30 301 1 293 300
M  V30 302 1 294 295
M  V30 303 1 294 296
M  V30 304 1 294 301
M  V30 305 1 295 302
M  V30 306 1 295 303
M  V30 307 1 295 304
M  V30 308 1 296 305
M  V30 309 1 296 306
M  V30 310 1 296 307
M  V30 311 1 308 309
M  V30 312 1 308 315
M  V30 313 1 309 310
M  V30 314 1 309 312
M  V30 315 1 309 316
M  V30 316 2 310 311
M  V30 317 1 310 324
M  V30 318 1 312 313
M  V30 319 1 312 314
M  V30 320 1 312 317
M  V30 321 1 313 318
M  V30 322 1 313 319
M  V30 323 1 313 320
M  V30 324 1 314 321
M  V30 325 1 314 322
M  V30 326 1 314 323
M  V30 327 1 324 325
M  V30 328 1 324 334
M  V30 329 1 325 326
M  V30 330 1 325 328
M  V30 331 1 325 335
M  V30 332 2 326 327
M  V30 333 1 326 341
M  V30 334 1 328 329
M  V30 335 1 328 336
M  V30 336 1 328 337
M  V30 337 1 329 330
M  V30 338 2 329 331
M  V30 339 2 330 332
M  V30 340 1 331 333
M  V30 341 1 331 338
M  V30 342 1 332 333
M  V30 343 1 332 339
M  V30 344 1 333 340
M  V30 345 1 341 342
M  V30 346 1 341 349
M  V30 347 1 342 343
M  V30 348 1 342 345
M  V30 349 1 342 350
M  V30 350 2 343 344
M  V30 351 1 343 360
M  V30 352 1 345 346
M  V30 353 1 345 351
M  V30 354 1 345 352
M  V30 355 1 346 347
M  V30 356 1 346 348
M  V30 357 1 346 353
M  V30 358 1 347 354
M  V30 359 1 347 355
M  V30 360 1 347 356
M  V30 361 1 348 357
M  V30 362 1 348 358
M  V30 363 1 348 359
M  V30 364 1 360 361
M  V30 365 1 360 364
M  V30 366 1 361 362
M  V30 367 1 361 365
M  V30 368 1 361 366
M  V30 369 2 362 363
M  V30 370 1 362 367
M  V30 371 1 367 368
M  V30 372 1 367 379
M  V30 373 1 368 369
M  V30 374 1 368 371
M  V30 375 1 368 380
M  V30 376 2 369 370
M  V30 377 1 369 388
M  V30 378 1 371 372
M  V30 379 1 371 381
M  V30 380 1 371 382
M  V30 381 2 372 373
M  V30 382 1 372 374
M  V30 383 1 373 375
M  V30 384 1 373 383
M  V30 385 2 374 376
M  V30 386 1 374 384
M  V30 387 2 375 377
M  V30 388 1 375 385
M  V30 389 1 376 377
M  V30 390 1 376 386
M  V30 391 1 377 378
M  V30 392 1 378 387
M  V30 393 1 388 389
M  V30 394 1 388 402
M  V30 395 1 389 390
M  V30 396 1 389 392
M  V30 397 1 389 403
M  V30 398 2 390 391
M  V30 399 1 390 412
M  V30 400 1 392 393
M  V30 401 1 392 404
M  V30 402 1 392 405
M  V30 403 2 393 394
M  V30 404 1 393 395
M  V30 405 1 394 396
M  V30 406 1 394 406
M  V30 407 2 395 397
M  V30 408 1 395 398
M  V30 409 1 396 397
M  V30 410 1 396 407
M  V30 411 1 397 399
M  V30 412 2 398 400
M  V30 413 1 398 408
M  V30 414 2 399 401
M  V30 415 1 399 409
M  V30 416 1 400 401
M  V30 417 1 400 410
M  V30 418 1 401 411
M  V30 419 1 412 413
M  V30 420 1 412 420
M  V30 421 1 413 414
M  V30 422 1 413 416
M  V30 423 1 413 421
M  V30 424 2 414 415
M  V30 425 1 414 431
M  V30 426 1 416 417
M  V30 427 1 416 422
M  V30 428 1 416 423
M  V30 429 1 417 418
M  V30 430 1 417 419
M  V30 431 1 417 424
M  V30 432 1 418 425
M  V30 433 1 418 426
M  V30 434 1 418 427
M  V30 435 1 419 428
M  V30 436 1 419 429
M  V30 437 1 419 430
M  V30 438 1 431 432
M  V30 439 1 431 439
M  V30 440 1 432 433
M  V30 441 1 432 435
M  V30 442 1 432 440
M  V30 443 2 433 434
M  V30 444 1 433 445
M  V30 445 1 435 436
M  V30 446 1 435 441
M  V30 447 1 435 442
M  V30 448 2 436 437
M  V30 449 1 436 438
M  V30 450 1 438 443
M  V30 451 1 438 444
M  V30 452 1 445 446
M  V30 453 1 445 454
M  V30 454 1 446 447
M  V30 455 1 446 449
M  V30 456 1 446 455
M  V30 457 2 447 448
M  V30 458 1 447 467
M  V30 459 1 449 450
M  V30 460 1 449 456
M  V30 461 1 449 457
M  V30 462 1 450 451
M  V30 463 1 450 458
M  V30 464 1 450 459
M  V30 465 1 451 452
M  V30 466 1 451 460
M  V30 467 1 451 461
M  V30 468 1 452 453
M  V30 469 1 452 462
M  V30 470 1 452 463
M  V30 471 1 453 464
M  V30 472 1 453 465
M  V30 473 1 453 466
M  V30 474 1 467 468
M  V30 475 1 467 475
M  V30 476 1 468 469
M  V30 477 1 468 471
M  V30 478 1 468 476
M  V30 479 2 469 470
M  V30 480 1 469 479
M  V30 481 1 471 472
M  V30 482 1 471 477
M  V30 483 1 471 478
M  V30 484 2 472 473
M  V30 485 1 472 474
M  V30 486 1 479 480
M  V30 487 1 479 488
M  V30 488 1 480 481
M  V30 489 1 480 483
M  V30 490 1 480 489
M  V30 491 2 481 482
M  V30 492 1 481 501
M  V30 493 1 483 484
M  V30 494 1 483 490
M  V30 495 1 483 491
M  V30 496 1 484 485
M  V30 497 1 484 492
M  V30 498 1 484 493
M  V30 499 1 485 486
M  V30 500 1 485 494
M  V30 501 1 485 495
M  V30 502 1 486 487
M  V30 503 1 486 496
M  V30 504 1 486 497
M  V30 505 1 487 498
M  V30 506 1 487 499
M  V30 507 1 487 500
M  V30 508 1 501 502
M  V30 509 1 501 508
M  V30 510 1 502 503
M  V30 511 1 502 505
M  V30 512 1 502 509
M  V30 513 2 503 504
M  V30 514 1 503 517
M  V30 515 1 505 506
M  V30 516 1 505 507
M  V30 517 1 505 510
M  V30 518 1 506 511
M  V30 519 1 506 512
M  V30 520 1 506 513
M  V30 521 1 507 514
M  V30 522 1 507 515
M  V30 523 1 507 516
M  V30 524 1 517 518
M  V30 525 1 517 522
M  V30 526 1 518 519
M  V30 527 1 518 521
M  V30 528 1 518 523
M  V30 529 2 519 520
M  V30 530 1 519 527
M  V30 531 1 521 524
M  V30 532 1 521 525
M  V30 533 1 521 526
M  V30 534 1 527 528
M  V30 535 1 527 535
M  V30 536 1 528 529
M  V30 537 1 528 531
M  V30 538 1 528 536
M  V30 539 2 529 530
M  V30 540 1 529 546
M  V30 541 1 531 532
M  V30 542 1 531 533
M  V30 543 1 531 537
M  V30 544 1 532 534
M  V30 545 1 532 538
M  V30 546 1 532 539
M  V30 547 1 533 540
M  V30 548 1 533 541
M  V30 549 1 533 542
M  V30 550 1 534 543
M  V30 551 1 534 544
M  V30 552 1 534 545
M  V30 553 1 546 547
M  V30 554 1 546 555
M  V30 555 1 547 548
M  V30 556 1 547 550
M  V30 557 1 547 556
M  V30 558 2 548 549
M  V30 559 1 548 568
M  V30 560 1 550 551
M  V30 561 1 550 557
M  V30 562 1 550 558
M  V30 563 1 551 552
M  V30 564 1 551 559
M  V30 565 1 551 560
M  V30 566 1 552 553
M  V30 567 1 552 561
M  V30 568 1 552 562
M  V30 569 1 553 554
M  V30 570 1 553 563
M  V30 571 1 553 564
M  V30 572 1 554 565
M  V30 573 1 554 566
M  V30 574 1 554 567
M  V30 575 1 568 569
M  V30 576 1 568 575
M  V30 577 1 569 570
M  V30 578 1 569 572
M  V30 579 1 569 576
M  V30 580 2 570 571
M  V30 581 1 570 582
M  V30 582 1 572 573
M  V30 583 1 572 574
M  V30 584 1 572 577
M  V30 585 1 573 578
M  V30 586 1 574 579
M  V30 587 1 574 580
M  V30 588 1 574 581
M  V30 589 1 582 583
M  V30 590 1 582 590
M  V30 591 1 583 584
M  V30 592 1 583 586
M  V30 593 1 583 591
M  V30 594 2 584 585
M  V30 595 1 584 601
M  V30 596 1 586 587
M  V30 597 1 586 588
M  V30 598 1 586 592
M  V30 599 1 587 589
M  V30 600 1 587 593
M  V30 601 1 587 594
M  V30 602 1 588 595
M  V30 603 1 588 596
M  V30 604 1 588 597
M  V30 605 1 589 598
M  V30 606 1 589 599
M  V30 607 1 589 600
M  V30 608 1 601 602
M  V30 609 1 601 605
M  V30 610 1 602 603
M  V30 611 1 602 606
M  V30 612 1 602 3938
M  V30 613 2 603 604
M  V30 614 1 603 607
M  V30 615 1 607 608
M  V30 616 1 607 611
M  V30 617 1 608 609
M  V30 618 1 608 612
M  V30 619 1 608 3956
M  V30 620 2 609 610
M  V30 621 1 609 613
M  V30 622 1 613 614
M  V30 623 1 613 617
M  V30 624 1 614 615
M  V30 625 1 614 618
M  V30 626 1 614 619
M  V30 627 2 615 616
M  V30 628 1 615 620
M  V30 629 1 620 621
M  V30 630 1 620 625
M  V30 631 1 621 622
M  V30 632 1 621 624
M  V30 633 1 621 626
M  V30 634 2 622 623
M  V30 635 1 622 630
M  V30 636 1 624 627
M  V30 637 1 624 628
M  V30 638 1 624 629
M  V30 639 1 630 631
M  V30 640 1 630 638
M  V30 641 1 631 632
M  V30 642 1 631 634
M  V30 643 1 631 639
M  V30 644 2 632 633
M  V30 645 1 632 647
M  V30 646 1 634 635
M  V30 647 1 634 640
M  V30 648 1 634 641
M  V30 649 1 635 636
M  V30 650 1 635 642
M  V30 651 1 635 643
M  V30 652 1 636 637
M  V30 653 1 637 644
M  V30 654 1 637 645
M  V30 655 1 637 646
M  V30 656 1 647 648
M  V30 657 1 647 653
M  V30 658 1 648 649
M  V30 659 1 648 651
M  V30 660 1 648 654
M  V30 661 2 649 650
M  V30 662 1 649 658
M  V30 663 1 651 652
M  V30 664 1 651 655
M  V30 665 1 651 656
M  V30 666 1 652 657
M  V30 667 1 658 659
M  V30 668 1 658 667
M  V30 669 1 659 660
M  V30 670 1 659 662
M  V30 671 1 659 668
M  V30 672 2 660 661
M  V30 673 1 660 673
M  V30 674 1 662 663
M  V30 675 1 662 669
M  V30 676 1 662 670
M  V30 677 1 663 664
M  V30 678 1 663 671
M  V30 679 1 663 672
M  V30 680 2 664 665
M  V30 681 1 664 666
M  V30 682 1 673 674
M  V30 683 1 673 682
M  V30 684 1 674 675
M  V30 685 1 674 677
M  V30 686 1 674 683
M  V30 687 2 675 676
M  V30 688 1 675 688
M  V30 689 1 677 678
M  V30 690 1 677 684
M  V30 691 1 677 685
M  V30 692 1 678 679
M  V30 693 1 678 686
M  V30 694 1 678 687
M  V30 695 2 679 680
M  V30 696 1 679 681
M  V30 697 1 688 689
M  V30 698 1 688 696
M  V30 699 1 689 690
M  V30 700 1 689 692
M  V30 701 1 689 697
M  V30 702 2 690 691
M  V30 703 1 690 700
M  V30 704 1 692 693
M  V30 705 1 692 698
M  V30 706 1 692 699
M  V30 707 2 693 694
M  V30 708 1 693 695
M  V30 709 1 700 701
M  V30 710 1 700 711
M  V30 711 1 701 702
M  V30 712 1 701 704
M  V30 713 1 701 712
M  V30 714 2 702 703
M  V30 715 1 702 720
M  V30 716 1 704 705
M  V30 717 1 704 713
M  V30 718 1 704 714
M  V30 719 2 705 706
M  V30 720 1 705 707
M  V30 721 1 706 708
M  V30 722 1 706 715
M  V30 723 2 707 709
M  V30 724 1 707 716
M  V30 725 2 708 710
M  V30 726 1 708 717
M  V30 727 1 709 710
M  V30 728 1 709 718
M  V30 729 1 710 719
M  V30 730 1 720 721
M  V30 731 1 720 728
M  V30 732 1 721 722
M  V30 733 1 721 724
M  V30 734 1 721 729
M  V30 735 2 722 723
M  V30 736 1 722 739
M  V30 737 1 724 725
M  V30 738 1 724 726
M  V30 739 1 724 730
M  V30 740 1 725 727
M  V30 741 1 725 731
M  V30 742 1 725 732
M  V30 743 1 726 733
M  V30 744 1 726 734
M  V30 745 1 726 735
M  V30 746 1 727 736
M  V30 747 1 727 737
M  V30 748 1 727 738
M  V30 749 1 739 740
M  V30 750 1 739 748
M  V30 751 1 740 741
M  V30 752 1 740 743
M  V30 753 1 740 749
M  V30 754 2 741 742
M  V30 755 1 741 754
M  V30 756 1 743 744
M  V30 757 1 743 750
M  V30 758 1 743 751
M  V30 759 1 744 745
M  V30 760 1 744 752
M  V30 761 1 744 753
M  V30 762 2 745 746
M  V30 763 1 745 747
M  V30 764 1 754 755
M  V30 765 1 754 763
M  V30 766 1 755 756
M  V30 767 1 755 758
M  V30 768 1 755 764
M  V30 769 2 756 757
M  V30 770 1 756 769
M  V30 771 1 758 759
M  V30 772 1 758 765
M  V30 773 1 758 766
M  V30 774 1 759 760
M  V30 775 1 759 767
M  V30 776 1 759 768
M  V30 777 2 760 761
M  V30 778 1 760 762
M  V30 779 1 769 770
M  V30 780 1 769 774
M  V30 781 1 770 771
M  V30 782 1 770 773
M  V30 783 1 770 775
M  V30 784 2 771 772
M  V30 785 1 771 779
M  V30 786 1 773 776
M  V30 787 1 773 777
M  V30 788 1 773 778
M  V30 789 1 779 780
M  V30 790 1 779 788
M  V30 791 1 780 781
M  V30 792 1 780 783
M  V30 793 1 780 789
M  V30 794 2 781 782
M  V30 795 1 781 794
M  V30 796 1 783 784
M  V30 797 1 783 790
M  V30 798 1 783 791
M  V30 799 1 784 785
M  V30 800 1 784 792
M  V30 801 1 784 793
M  V30 802 2 785 786
M  V30 803 1 785 787
M  V30 804 1 794 795
M  V30 805 1 794 801
M  V30 806 1 795 796
M  V30 807 1 795 798
M  V30 808 1 795 802
M  V30 809 2 796 797
M  V30 810 1 796 810
M  V30 811 1 798 799
M  V30 812 1 798 800
M  V30 813 1 798 803
M  V30 814 1 799 804
M  V30 815 1 799 805
M  V30 816 1 799 806
M  V30 817 1 800 807
M  V30 818 1 800 808
M  V30 819 1 800 809
M  V30 820 1 810 811
M  V30 821 1 810 818
M  V30 822 1 811 812
M  V30 823 1 811 814
M  V30 824 1 811 819
M  V30 825 2 812 813
M  V30 826 1 812 827
M  V30 827 1 814 815
M  V30 828 1 814 820
M  V30 829 1 814 821
M  V30 830 1 815 816
M  V30 831 1 815 822
M  V30 832 1 815 823
M  V30 833 1 816 817
M  V30 834 1 817 824
M  V30 835 1 817 825
M  V30 836 1 817 826
M  V30 837 1 827 828
M  V30 838 1 827 835
M  V30 839 1 828 829
M  V30 840 1 828 831
M  V30 841 1 828 836
M  V30 842 2 829 830
M  V30 843 1 829 844
M  V30 844 1 831 832
M  V30 845 1 831 837
M  V30 846 1 831 838
M  V30 847 1 832 833
M  V30 848 1 832 839
M  V30 849 1 832 840
M  V30 850 1 833 834
M  V30 851 1 834 841
M  V30 852 1 834 842
M  V30 853 1 834 843
M  V30 854 1 844 845
M  V30 855 1 844 853
M  V30 856 1 845 846
M  V30 857 1 845 848
M  V30 858 1 845 854
M  V30 859 2 846 847
M  V30 860 1 846 866
M  V30 861 1 848 849
M  V30 862 1 848 855
M  V30 863 1 848 856
M  V30 864 1 849 850
M  V30 865 1 849 857
M  V30 866 1 849 858
M  V30 867 1 850 851
M  V30 868 1 850 859
M  V30 869 1 850 860
M  V30 870 1 851 852
M  V30 871 1 851 861
M  V30 872 1 851 862
M  V30 873 1 852 863
M  V30 874 1 852 864
M  V30 875 1 852 865
M  V30 876 1 866 867
M  V30 877 1 866 874
M  V30 878 1 867 868
M  V30 879 1 867 870
M  V30 880 1 867 875
M  V30 881 2 868 869
M  V30 882 1 868 885
M  V30 883 1 870 871
M  V30 884 1 870 876
M  V30 885 1 870 877
M  V30 886 1 871 872
M  V30 887 1 871 873
M  V30 888 1 871 878
M  V30 889 1 872 879
M  V30 890 1 872 880
M  V30 891 1 872 881
M  V30 892 1 873 882
M  V30 893 1 873 883
M  V30 894 1 873 884
M  V30 895 1 885 886
M  V30 896 1 885 891
M  V30 897 1 886 887
M  V30 898 1 886 889
M  V30 899 1 886 892
M  V30 900 2 887 888
M  V30 901 1 887 896
M  V30 902 1 889 890
M  V30 903 1 889 893
M  V30 904 1 889 894
M  V30 905 1 890 895
M  V30 906 1 896 897
M  V30 907 1 896 906
M  V30 908 1 897 898
M  V30 909 1 897 900
M  V30 910 1 897 907
M  V30 911 2 898 899
M  V30 912 1 898 913
M  V30 913 1 900 901
M  V30 914 1 900 908
M  V30 915 1 900 909
M  V30 916 1 901 902
M  V30 917 2 901 903
M  V30 918 2 902 904
M  V30 919 1 903 905
M  V30 920 1 903 910
M  V30 921 1 904 905
M  V30 922 1 904 911
M  V30 923 1 905 912
M  V30 924 1 913 914
M  V30 925 1 913 919
M  V30 926 1 914 915
M  V30 927 1 914 917
M  V30 928 1 914 920
M  V30 929 2 915 916
M  V30 930 1 915 927
M  V30 931 1 917 918
M  V30 932 1 917 921
M  V30 933 1 917 922
M  V30 934 1 918 919
M  V30 935 1 918 923
M  V30 936 1 918 924
M  V30 937 1 919 925
M  V30 938 1 919 926
M  V30 939 1 927 928
M  V30 940 1 927 936
M  V30 941 1 928 929
M  V30 942 1 928 931
M  V30 943 1 928 937
M  V30 944 2 929 930
M  V30 945 1 929 949
M  V30 946 1 931 932
M  V30 947 1 931 938
M  V30 948 1 931 939
M  V30 949 1 932 933
M  V30 950 1 932 940
M  V30 951 1 932 941
M  V30 952 1 933 934
M  V30 953 1 933 942
M  V30 954 1 933 943
M  V30 955 1 934 935
M  V30 956 1 934 944
M  V30 957 1 934 945
M  V30 958 1 935 946
M  V30 959 1 935 947
M  V30 960 1 935 948
M  V30 961 1 949 950
M  V30 962 1 949 957
M  V30 963 1 950 951
M  V30 964 1 950 953
M  V30 965 1 950 958
M  V30 966 2 951 952
M  V30 967 1 951 968
M  V30 968 1 953 954
M  V30 969 1 953 959
M  V30 970 1 953 960
M  V30 971 1 954 955
M  V30 972 1 954 956
M  V30 973 1 954 961
M  V30 974 1 955 962
M  V30 975 1 955 963
M  V30 976 1 955 964
M  V30 977 1 956 965
M  V30 978 1 956 966
M  V30 979 1 956 967
M  V30 980 1 968 969
M  V30 981 1 968 975
M  V30 982 1 969 970
M  V30 983 1 969 972
M  V30 984 1 969 976
M  V30 985 2 970 971
M  V30 986 1 970 984
M  V30 987 1 972 973
M  V30 988 1 972 974
M  V30 989 1 972 977
M  V30 990 1 973 978
M  V30 991 1 973 979
M  V30 992 1 973 980
M  V30 993 1 974 981
M  V30 994 1 974 982
M  V30 995 1 974 983
M  V30 996 1 984 985
M  V30 997 1 984 993
M  V30 998 1 985 986
M  V30 999 1 985 988
M  V30 1000 1 985 994
M  V30 1001 2 986 987
M  V30 1002 1 986 1001
M  V30 1003 1 988 989
M  V30 1004 1 988 995
M  V30 1005 1 988 996
M  V30 1006 1 989 990
M  V30 1007 1 989 997
M  V30 1008 1 989 998
M  V30 1009 2 990 991
M  V30 1010 1 990 992
M  V30 1011 1 992 999
M  V30 1012 1 992 1000
M  V30 1013 1 1001 1002
M  V30 1014 1 1001 1009
M  V30 1015 1 1002 1003
M  V30 1016 1 1002 1005
M  V30 1017 1 1002 1010
M  V30 1018 2 1003 1004
M  V30 1019 1 1003 1020
M  V30 1020 1 1005 1006
M  V30 1021 1 1005 1011
M  V30 1022 1 1005 1012
M  V30 1023 1 1006 1007
M  V30 1024 1 1006 1008
M  V30 1025 1 1006 1013
M  V30 1026 1 1007 1014
M  V30 1027 1 1007 1015
M  V30 1028 1 1007 1016
M  V30 1029 1 1008 1017
M  V30 1030 1 1008 1018
M  V30 1031 1 1008 1019
M  V30 1032 1 1020 1021
M  V30 1033 1 1020 1032
M  V30 1034 1 1021 1022
M  V30 1035 1 1021 1024
M  V30 1036 1 1021 1033
M  V30 1037 2 1022 1023
M  V30 1038 1 1022 1041
M  V30 1039 1 1024 1025
M  V30 1040 1 1024 1034
M  V30 1041 1 1024 1035
M  V30 1042 2 1025 1026
M  V30 1043 1 1025 1027
M  V30 1044 1 1026 1028
M  V30 1045 1 1026 1036
M  V30 1046 2 1027 1029
M  V30 1047 1 1027 1037
M  V30 1048 2 1028 1030
M  V30 1049 1 1028 1038
M  V30 1050 1 1029 1030
M  V30 1051 1 1029 1039
M  V30 1052 1 1030 1031
M  V30 1053 1 1031 1040
M  V30 1054 1 1041 1042
M  V30 1055 1 1041 1045
M  V30 1056 1 1042 1043
M  V30 1057 1 1042 1046
M  V30 1058 1 1042 1047
M  V30 1059 2 1043 1044
M  V30 1060 1 1043 1048
M  V30 1061 1 1048 1049
M  V30 1062 1 1048 1055
M  V30 1063 1 1049 1050
M  V30 1064 1 1049 1052
M  V30 1065 1 1049 1056
M  V30 1066 2 1050 1051
M  V30 1067 1 1050 1064
M  V30 1068 1 1052 1053
M  V30 1069 1 1052 1054
M  V30 1070 1 1052 1057
M  V30 1071 1 1053 1058
M  V30 1072 1 1053 1059
M  V30 1073 1 1053 1060
M  V30 1074 1 1054 1061
M  V30 1075 1 1054 1062
M  V30 1076 1 1054 1063
M  V30 1077 1 1064 1065
M  V30 1078 1 1064 1070
M  V30 1079 1 1065 1066
M  V30 1080 1 1065 1068
M  V30 1081 1 1065 1071
M  V30 1082 2 1066 1067
M  V30 1083 1 1066 1075
M  V30 1084 1 1068 1069
M  V30 1085 1 1068 1072
M  V30 1086 1 1068 1073
M  V30 1087 1 1069 1074
M  V30 1088 1 1075 1076
M  V30 1089 1 1075 1083
M  V30 1090 1 1076 1077
M  V30 1091 1 1076 1079
M  V30 1092 1 1076 1084
M  V30 1093 2 1077 1078
M  V30 1094 1 1077 1094
M  V30 1095 1 1079 1080
M  V30 1096 1 1079 1085
M  V30 1097 1 1079 1086
M  V30 1098 1 1080 1081
M  V30 1099 1 1080 1082
M  V30 1100 1 1080 1087
M  V30 1101 1 1081 1088
M  V30 1102 1 1081 1089
M  V30 1103 1 1081 1090
M  V30 1104 1 1082 1091
M  V30 1105 1 1082 1092
M  V30 1106 1 1082 1093
M  V30 1107 1 1094 1095
M  V30 1108 1 1094 1103
M  V30 1109 1 1095 1096
M  V30 1110 1 1095 1098
M  V30 1111 1 1095 1104
M  V30 1112 2 1096 1097
M  V30 1113 1 1096 1109
M  V30 1114 1 1098 1099
M  V30 1115 1 1098 1105
M  V30 1116 1 1098 1106
M  V30 1117 1 1099 1100
M  V30 1118 1 1099 1107
M  V30 1119 1 1099 1108
M  V30 1120 2 1100 1101
M  V30 1121 1 1100 1102
M  V30 1122 1 1109 1110
M  V30 1123 1 1109 1118
M  V30 1124 1 1110 1111
M  V30 1125 1 1110 1113
M  V30 1126 1 1110 1119
M  V30 1127 2 1111 1112
M  V30 1128 1 1111 1126
M  V30 1129 1 1113 1114
M  V30 1130 1 1113 1120
M  V30 1131 1 1113 1121
M  V30 1132 1 1114 1115
M  V30 1133 1 1114 1122
M  V30 1134 1 1114 1123
M  V30 1135 2 1115 1116
M  V30 1136 1 1115 1117
M  V30 1137 1 1117 1124
M  V30 1138 1 1117 1125
M  V30 1139 1 1126 1127
M  V30 1140 1 1126 1131
M  V30 1141 1 1127 1128
M  V30 1142 1 1127 1130
M  V30 1143 1 1127 1132
M  V30 1144 2 1128 1129
M  V30 1145 1 1128 1136
M  V30 1146 1 1130 1133
M  V30 1147 1 1130 1134
M  V30 1148 1 1130 1135
M  V30 1149 1 1136 1137
M  V30 1150 1 1136 1142
M  V30 1151 1 1137 1138
M  V30 1152 1 1137 1140
M  V30 1153 1 1137 1143
M  V30 1154 2 1138 1139
M  V30 1155 1 1138 1150
M  V30 1156 1 1140 1141
M  V30 1157 1 1140 1144
M  V30 1158 1 1140 1145
M  V30 1159 1 1141 1142
M  V30 1160 1 1141 1146
M  V30 1161 1 1141 1147
M  V30 1162 1 1142 1148
M  V30 1163 1 1142 1149
M  V30 1164 1 1150 1151
M  V30 1165 1 1150 1158
M  V30 1166 1 1151 1152
M  V30 1167 1 1151 1154
M  V30 1168 1 1151 1159
M  V30 1169 2 1152 1153
M  V30 1170 1 1152 1169
M  V30 1171 1 1154 1155
M  V30 1172 1 1154 1156
M  V30 1173 1 1154 1160
M  V30 1174 1 1155 1157
M  V30 1175 1 1155 1161
M  V30 1176 1 1155 1162
M  V30 1177 1 1156 1163
M  V30 1178 1 1156 1164
M  V30 1179 1 1156 1165
M  V30 1180 1 1157 1166
M  V30 1181 1 1157 1167
M  V30 1182 1 1157 1168
M  V30 1183 1 1169 1170
M  V30 1184 1 1169 1175
M  V30 1185 1 1170 1171
M  V30 1186 1 1170 1173
M  V30 1187 1 1170 1176
M  V30 1188 2 1171 1172
M  V30 1189 1 1171 1180
M  V30 1190 1 1173 1174
M  V30 1191 1 1173 1177
M  V30 1192 1 1173 1178
M  V30 1193 1 1174 1179
M  V30 1194 1 1180 1181
M  V30 1195 1 1180 1188
M  V30 1196 1 1181 1182
M  V30 1197 1 1181 1184
M  V30 1198 1 1181 1189
M  V30 1199 2 1182 1183
M  V30 1200 1 1182 1199
M  V30 1201 1 1184 1185
M  V30 1202 1 1184 1190
M  V30 1203 1 1184 1191
M  V30 1204 1 1185 1186
M  V30 1205 1 1185 1187
M  V30 1206 1 1185 1192
M  V30 1207 1 1186 1193
M  V30 1208 1 1186 1194
M  V30 1209 1 1186 1195
M  V30 1210 1 1187 1196
M  V30 1211 1 1187 1197
M  V30 1212 1 1187 1198
M  V30 1213 1 1199 1200
M  V30 1214 1 1199 1206
M  V30 1215 1 1200 1201
M  V30 1216 1 1200 1203
M  V30 1217 1 1200 1207
M  V30 1218 2 1201 1202
M  V30 1219 1 1201 1215
M  V30 1220 1 1203 1204
M  V30 1221 1 1203 1205
M  V30 1222 1 1203 1208
M  V30 1223 1 1204 1209
M  V30 1224 1 1204 1210
M  V30 1225 1 1204 1211
M  V30 1226 1 1205 1212
M  V30 1227 1 1205 1213
M  V30 1228 1 1205 1214
M  V30 1229 1 1215 1216
M  V30 1230 1 1215 1226
M  V30 1231 1 1216 1217
M  V30 1232 1 1216 1219
M  V30 1233 1 1216 1227
M  V30 1234 2 1217 1218
M  V30 1235 1 1217 1235
M  V30 1236 1 1219 1220
M  V30 1237 1 1219 1228
M  V30 1238 1 1219 1229
M  V30 1239 2 1220 1221
M  V30 1240 1 1220 1222
M  V30 1241 1 1221 1223
M  V30 1242 1 1221 1230
M  V30 1243 2 1222 1224
M  V30 1244 1 1222 1231
M  V30 1245 2 1223 1225
M  V30 1246 1 1223 1232
M  V30 1247 1 1224 1225
M  V30 1248 1 1224 1233
M  V30 1249 1 1225 1234
M  V30 1250 1 1235 1236
M  V30 1251 1 1235 1244
M  V30 1252 1 1236 1237
M  V30 1253 1 1236 1239
M  V30 1254 1 1236 1245
M  V30 1255 2 1237 1238
M  V30 1256 1 1237 1250
M  V30 1257 1 1239 1240
M  V30 1258 1 1239 1246
M  V30 1259 1 1239 1247
M  V30 1260 1 1240 1241
M  V30 1261 1 1240 1248
M  V30 1262 1 1240 1249
M  V30 1263 2 1241 1242
M  V30 1264 1 1241 1243
M  V30 1265 1 1250 1251
M  V30 1266 1 1250 1261
M  V30 1267 1 1251 1252
M  V30 1268 1 1251 1254
M  V30 1269 1 1251 1262
M  V30 1270 2 1252 1253
M  V30 1271 1 1252 1270
M  V30 1272 1 1254 1255
M  V30 1273 1 1254 1263
M  V30 1274 1 1254 1264
M  V30 1275 2 1255 1256
M  V30 1276 1 1255 1257
M  V30 1277 1 1256 1258
M  V30 1278 1 1256 1265
M  V30 1279 2 1257 1259
M  V30 1280 1 1257 1266
M  V30 1281 2 1258 1260
M  V30 1282 1 1258 1267
M  V30 1283 1 1259 1260
M  V30 1284 1 1259 1268
M  V30 1285 1 1260 1269
M  V30 1286 1 1270 1271
M  V30 1287 1 1270 1278
M  V30 1288 1 1271 1272
M  V30 1289 1 1271 1274
M  V30 1290 1 1271 1279
M  V30 1291 2 1272 1273
M  V30 1292 1 1272 1287
M  V30 1293 1 1274 1275
M  V30 1294 1 1274 1280
M  V30 1295 1 1274 1281
M  V30 1296 1 1275 1276
M  V30 1297 1 1275 1282
M  V30 1298 1 1275 1283
M  V30 1299 1 1276 1277
M  V30 1300 1 1277 1284
M  V30 1301 1 1277 1285
M  V30 1302 1 1277 1286
M  V30 1303 1 1287 1288
M  V30 1304 1 1287 1296
M  V30 1305 1 1288 1289
M  V30 1306 1 1288 1291
M  V30 1307 1 1288 1297
M  V30 1308 2 1289 1290
M  V30 1309 1 1289 1302
M  V30 1310 1 1291 1292
M  V30 1311 1 1291 1298
M  V30 1312 1 1291 1299
M  V30 1313 1 1292 1293
M  V30 1314 1 1292 1300
M  V30 1315 1 1292 1301
M  V30 1316 2 1293 1294
M  V30 1317 1 1293 1295
M  V30 1318 1 1302 1303
M  V30 1319 1 1302 1312
M  V30 1320 1 1303 1304
M  V30 1321 1 1303 1306
M  V30 1322 1 1303 1313
M  V30 1323 2 1304 1305
M  V30 1324 1 1304 1319
M  V30 1325 1 1306 1307
M  V30 1326 1 1306 1314
M  V30 1327 1 1306 1315
M  V30 1328 1 1307 1308
M  V30 1329 2 1307 1309
M  V30 1330 1 1308 1310
M  V30 1331 1 1308 1316
M  V30 1332 1 1309 1311
M  V30 1333 1 1309 1317
M  V30 1334 2 1310 1311
M  V30 1335 1 1310 1318
M  V30 1336 1 1319 1320
M  V30 1337 1 1319 1323
M  V30 1338 1 1320 1321
M  V30 1339 1 1320 1324
M  V30 1340 1 1320 1325
M  V30 1341 2 1321 1322
M  V30 1342 1 1321 1326
M  V30 1343 1 1326 1327
M  V30 1344 1 1326 1332
M  V30 1345 1 1327 1328
M  V30 1346 1 1327 1330
M  V30 1347 1 1327 1333
M  V30 1348 2 1328 1329
M  V30 1349 1 1328 1337
M  V30 1350 1 1330 1331
M  V30 1351 1 1330 1334
M  V30 1352 1 1330 1335
M  V30 1353 1 1331 1336
M  V30 1354 1 1337 1338
M  V30 1355 1 1337 1345
M  V30 1356 1 1338 1339
M  V30 1357 1 1338 1341
M  V30 1358 1 1338 1346
M  V30 1359 2 1339 1340
M  V30 1360 1 1339 1356
M  V30 1361 1 1341 1342
M  V30 1362 1 1341 1347
M  V30 1363 1 1341 1348
M  V30 1364 1 1342 1343
M  V30 1365 1 1342 1344
M  V30 1366 1 1342 1349
M  V30 1367 1 1343 1350
M  V30 1368 1 1343 1351
M  V30 1369 1 1343 1352
M  V30 1370 1 1344 1353
M  V30 1371 1 1344 1354
M  V30 1372 1 1344 1355
M  V30 1373 1 1356 1357
M  V30 1374 1 1356 1362
M  V30 1375 1 1357 1358
M  V30 1376 1 1357 1360
M  V30 1377 1 1357 1363
M  V30 1378 2 1358 1359
M  V30 1379 1 1358 1367
M  V30 1380 1 1360 1361
M  V30 1381 1 1360 1364
M  V30 1382 1 1360 1365
M  V30 1383 1 1361 1366
M  V30 1384 1 1367 1368
M  V30 1385 1 1367 1375
M  V30 1386 1 1368 1369
M  V30 1387 1 1368 1371
M  V30 1388 1 1368 1376
M  V30 1389 2 1369 1370
M  V30 1390 1 1369 1379
M  V30 1391 1 1371 1372
M  V30 1392 1 1371 1377
M  V30 1393 1 1371 1378
M  V30 1394 2 1372 1373
M  V30 1395 1 1372 1374
M  V30 1396 1 1379 1380
M  V30 1397 1 1379 1391
M  V30 1398 1 1380 1381
M  V30 1399 1 1380 1383
M  V30 1400 1 1380 1392
M  V30 1401 2 1381 1382
M  V30 1402 1 1381 1400
M  V30 1403 1 1383 1384
M  V30 1404 1 1383 1393
M  V30 1405 1 1383 1394
M  V30 1406 2 1384 1385
M  V30 1407 1 1384 1386
M  V30 1408 1 1385 1387
M  V30 1409 1 1385 1395
M  V30 1410 2 1386 1388
M  V30 1411 1 1386 1396
M  V30 1412 2 1387 1389
M  V30 1413 1 1387 1397
M  V30 1414 1 1388 1389
M  V30 1415 1 1388 1398
M  V30 1416 1 1389 1390
M  V30 1417 1 1390 1399
M  V30 1418 1 1400 1401
M  V30 1419 1 1400 1408
M  V30 1420 1 1401 1402
M  V30 1421 1 1401 1404
M  V30 1422 1 1401 1409
M  V30 1423 2 1402 1403
M  V30 1424 1 1402 1419
M  V30 1425 1 1404 1405
M  V30 1426 1 1404 1410
M  V30 1427 1 1404 1411
M  V30 1428 1 1405 1406
M  V30 1429 1 1405 1407
M  V30 1430 1 1405 1412
M  V30 1431 1 1406 1413
M  V30 1432 1 1406 1414
M  V30 1433 1 1406 1415
M  V30 1434 1 1407 1416
M  V30 1435 1 1407 1417
M  V30 1436 1 1407 1418
M  V30 1437 1 1419 1420
M  V30 1438 1 1419 1430
M  V30 1439 1 1420 1421
M  V30 1440 1 1420 1423
M  V30 1441 1 1420 1431
M  V30 1442 2 1421 1422
M  V30 1443 1 1421 1443
M  V30 1444 1 1423 1424
M  V30 1445 1 1423 1432
M  V30 1446 1 1423 1433
M  V30 1447 1 1424 1425
M  V30 1448 1 1424 1434
M  V30 1449 1 1424 1435
M  V30 1450 1 1425 1426
M  V30 1451 1 1425 1436
M  V30 1452 1 1425 1437
M  V30 1453 1 1426 1427
M  V30 1454 1 1426 1438
M  V30 1455 1 1427 1428
M  V30 1456 2 1427 1429
M  V30 1457 1 1428 1439
M  V30 1458 1 1428 1440
M  V30 1459 1 1429 1441
M  V30 1460 1 1429 1442
M  V30 1461 1 1443 1444
M  V30 1462 1 1443 1450
M  V30 1463 1 1444 1445
M  V30 1464 1 1444 1447
M  V30 1465 1 1444 1451
M  V30 1466 2 1445 1446
M  V30 1467 1 1445 1457
M  V30 1468 1 1447 1448
M  V30 1469 1 1447 1449
M  V30 1470 1 1447 1452
M  V30 1471 1 1448 1453
M  V30 1472 1 1449 1454
M  V30 1473 1 1449 1455
M  V30 1474 1 1449 1456
M  V30 1475 1 1457 1458
M  V30 1476 1 1457 1466
M  V30 1477 1 1458 1459
M  V30 1478 1 1458 1461
M  V30 1479 1 1458 1467
M  V30 1480 2 1459 1460
M  V30 1481 1 1459 1474
M  V30 1482 1 1461 1462
M  V30 1483 1 1461 1468
M  V30 1484 1 1461 1469
M  V30 1485 1 1462 1463
M  V30 1486 1 1462 1470
M  V30 1487 1 1462 1471
M  V30 1488 2 1463 1464
M  V30 1489 1 1463 1465
M  V30 1490 1 1465 1472
M  V30 1491 1 1465 1473
M  V30 1492 1 1474 1475
M  V30 1493 1 1474 1485
M  V30 1494 1 1475 1476
M  V30 1495 1 1475 1478
M  V30 1496 1 1475 1486
M  V30 1497 2 1476 1477
M  V30 1498 1 1476 1498
M  V30 1499 1 1478 1479
M  V30 1500 1 1478 1487
M  V30 1501 1 1478 1488
M  V30 1502 1 1479 1480
M  V30 1503 1 1479 1489
M  V30 1504 1 1479 1490
M  V30 1505 1 1480 1481
M  V30 1506 1 1480 1491
M  V30 1507 1 1480 1492
M  V30 1508 1 1481 1482
M  V30 1509 1 1481 1493
M  V30 1510 1 1482 1483
M  V30 1511 2 1482 1484
M  V30 1512 1 1483 1494
M  V30 1513 1 1483 1495
M  V30 1514 1 1484 1496
M  V30 1515 1 1484 1497
M  V30 1516 1 1498 1499
M  V30 1517 1 1498 1502
M  V30 1518 1 1499 1500
M  V30 1519 1 1499 1503
M  V30 1520 1 1499 1504
M  V30 1521 2 1500 1501
M  V30 1522 1 1500 1505
M  V30 1523 1 1505 1506
M  V30 1524 1 1505 1513
M  V30 1525 1 1506 1507
M  V30 1526 1 1506 1509
M  V30 1527 1 1506 1514
M  V30 1528 2 1507 1508
M  V30 1529 1 1507 1524
M  V30 1530 1 1509 1510
M  V30 1531 1 1509 1515
M  V30 1532 1 1509 1516
M  V30 1533 1 1510 1511
M  V30 1534 1 1510 1512
M  V30 1535 1 1510 1517
M  V30 1536 1 1511 1518
M  V30 1537 1 1511 1519
M  V30 1538 1 1511 1520
M  V30 1539 1 1512 1521
M  V30 1540 1 1512 1522
M  V30 1541 1 1512 1523
M  V30 1542 1 1524 1525
M  V30 1543 1 1524 1535
M  V30 1544 1 1525 1526
M  V30 1545 1 1525 1528
M  V30 1546 1 1525 1536
M  V30 1547 2 1526 1527
M  V30 1548 1 1526 1544
M  V30 1549 1 1528 1529
M  V30 1550 1 1528 1537
M  V30 1551 1 1528 1538
M  V30 1552 2 1529 1530
M  V30 1553 1 1529 1531
M  V30 1554 1 1530 1532
M  V30 1555 1 1530 1539
M  V30 1556 2 1531 1533
M  V30 1557 1 1531 1540
M  V30 1558 2 1532 1534
M  V30 1559 1 1532 1541
M  V30 1560 1 1533 1534
M  V30 1561 1 1533 1542
M  V30 1562 1 1534 1543
M  V30 1563 1 1544 1545
M  V30 1564 1 1544 1549
M  V30 1565 1 1545 1546
M  V30 1566 1 1545 1548
M  V30 1567 1 1545 1550
M  V30 1568 2 1546 1547
M  V30 1569 1 1546 1554
M  V30 1570 1 1548 1551
M  V30 1571 1 1548 1552
M  V30 1572 1 1548 1553
M  V30 1573 1 1554 1555
M  V30 1574 1 1554 1559
M  V30 1575 1 1555 1556
M  V30 1576 1 1555 1558
M  V30 1577 1 1555 1560
M  V30 1578 2 1556 1557
M  V30 1579 1 1556 1564
M  V30 1580 1 1558 1561
M  V30 1581 1 1558 1562
M  V30 1582 1 1558 1563
M  V30 1583 1 1564 1565
M  V30 1584 1 1564 1573
M  V30 1585 1 1565 1566
M  V30 1586 1 1565 1568
M  V30 1587 1 1565 1574
M  V30 1588 2 1566 1567
M  V30 1589 1 1566 1579
M  V30 1590 1 1568 1569
M  V30 1591 1 1568 1575
M  V30 1592 1 1568 1576
M  V30 1593 1 1569 1570
M  V30 1594 1 1569 1577
M  V30 1595 1 1569 1578
M  V30 1596 2 1570 1571
M  V30 1597 1 1570 1572
M  V30 1598 1 1579 1580
M  V30 1599 1 1579 1586
M  V30 1600 1 1580 1581
M  V30 1601 1 1580 1583
M  V30 1602 1 1580 1587
M  V30 1603 2 1581 1582
M  V30 1604 1 1581 1593
M  V30 1605 1 1583 1584
M  V30 1606 1 1583 1585
M  V30 1607 1 1583 1588
M  V30 1608 1 1584 1589
M  V30 1609 1 1585 1590
M  V30 1610 1 1585 1591
M  V30 1611 1 1585 1592
M  V30 1612 1 1593 1594
M  V30 1613 1 1593 1601
M  V30 1614 1 1594 1595
M  V30 1615 1 1594 1597
M  V30 1616 1 1594 1602
M  V30 1617 2 1595 1596
M  V30 1618 1 1595 1612
M  V30 1619 1 1597 1598
M  V30 1620 1 1597 1603
M  V30 1621 1 1597 1604
M  V30 1622 1 1598 1599
M  V30 1623 1 1598 1600
M  V30 1624 1 1598 1605
M  V30 1625 1 1599 1606
M  V30 1626 1 1599 1607
M  V30 1627 1 1599 1608
M  V30 1628 1 1600 1609
M  V30 1629 1 1600 1610
M  V30 1630 1 1600 1611
M  V30 1631 1 1612 1613
M  V30 1632 1 1612 1620
M  V30 1633 1 1613 1614
M  V30 1634 1 1613 1616
M  V30 1635 1 1613 1621
M  V30 1636 2 1614 1615
M  V30 1637 1 1614 1631
M  V30 1638 1 1616 1617
M  V30 1639 1 1616 1622
M  V30 1640 1 1616 1623
M  V30 1641 1 1617 1618
M  V30 1642 1 1617 1619
M  V30 1643 1 1617 1624
M  V30 1644 1 1618 1625
M  V30 1645 1 1618 1626
M  V30 1646 1 1618 1627
M  V30 1647 1 1619 1628
M  V30 1648 1 1619 1629
M  V30 1649 1 1619 1630
M  V30 1650 1 1631 1632
M  V30 1651 1 1631 1635
M  V30 1652 1 1632 1633
M  V30 1653 1 1632 1636
M  V30 1654 1 1632 1637
M  V30 1655 2 1633 1634
M  V30 1656 1 1633 1638
M  V30 1657 1 1638 1639
M  V30 1658 1 1638 1646
M  V30 1659 1 1639 1640
M  V30 1660 1 1639 1642
M  V30 1661 1 1639 1647
M  V30 1662 2 1640 1641
M  V30 1663 1 1640 1655
M  V30 1664 1 1642 1643
M  V30 1665 1 1642 1648
M  V30 1666 1 1642 1649
M  V30 1667 1 1643 1644
M  V30 1668 1 1643 1650
M  V30 1669 1 1643 1651
M  V30 1670 1 1644 1645
M  V30 1671 1 1645 1652
M  V30 1672 1 1645 1653
M  V30 1673 1 1645 1654
M  V30 1674 1 1655 1656
M  V30 1675 1 1655 1661
M  V30 1676 1 1656 1657
M  V30 1677 1 1656 1659
M  V30 1678 1 1656 1662
M  V30 1679 2 1657 1658
M  V30 1680 1 1657 1666
M  V30 1681 1 1659 1660
M  V30 1682 1 1659 1663
M  V30 1683 1 1659 1664
M  V30 1684 1 1660 1665
M  V30 1685 1 1666 1667
M  V30 1686 1 1666 1674
M  V30 1687 1 1667 1668
M  V30 1688 1 1667 1670
M  V30 1689 1 1667 1675
M  V30 1690 2 1668 1669
M  V30 1691 1 1668 1685
M  V30 1692 1 1670 1671
M  V30 1693 1 1670 1676
M  V30 1694 1 1670 1677
M  V30 1695 1 1671 1672
M  V30 1696 1 1671 1673
M  V30 1697 1 1671 1678
M  V30 1698 1 1672 1679
M  V30 1699 1 1672 1680
M  V30 1700 1 1672 1681
M  V30 1701 1 1673 1682
M  V30 1702 1 1673 1683
M  V30 1703 1 1673 1684
M  V30 1704 1 1685 1686
M  V30 1705 1 1685 1693
M  V30 1706 1 1686 1687
M  V30 1707 1 1686 1689
M  V30 1708 1 1686 1694
M  V30 1709 2 1687 1688
M  V30 1710 1 1687 1697
M  V30 1711 1 1689 1690
M  V30 1712 1 1689 1695
M  V30 1713 1 1689 1696
M  V30 1714 2 1690 1691
M  V30 1715 1 1690 1692
M  V30 1716 1 1697 1698
M  V30 1717 1 1697 1704
M  V30 1718 1 1698 1699
M  V30 1719 1 1698 1701
M  V30 1720 1 1698 1705
M  V30 1721 2 1699 1700
M  V30 1722 1 1699 1713
M  V30 1723 1 1701 1702
M  V30 1724 1 1701 1703
M  V30 1725 1 1701 1706
M  V30 1726 1 1702 1707
M  V30 1727 1 1702 1708
M  V30 1728 1 1702 1709
M  V30 1729 1 1703 1710
M  V30 1730 1 1703 1711
M  V30 1731 1 1703 1712
M  V30 1732 1 1713 1714
M  V30 1733 1 1713 1719
M  V30 1734 1 1714 1715
M  V30 1735 1 1714 1717
M  V30 1736 1 1714 1720
M  V30 1737 2 1715 1716
M  V30 1738 1 1715 1724
M  V30 1739 1 1717 1718
M  V30 1740 1 1717 1721
M  V30 1741 1 1717 1722
M  V30 1742 1 1718 1723
M  V30 1743 1 1724 1725
M  V30 1744 1 1724 1733
M  V30 1745 1 1725 1726
M  V30 1746 1 1725 1728
M  V30 1747 1 1725 1734
M  V30 1748 2 1726 1727
M  V30 1749 1 1726 1739
M  V30 1750 1 1728 1729
M  V30 1751 1 1728 1735
M  V30 1752 1 1728 1736
M  V30 1753 1 1729 1730
M  V30 1754 1 1729 1737
M  V30 1755 1 1729 1738
M  V30 1756 2 1730 1731
M  V30 1757 1 1730 1732
M  V30 1758 1 1739 1740
M  V30 1759 1 1739 1743
M  V30 1760 1 1740 1741
M  V30 1761 1 1740 1744
M  V30 1762 1 1740 1745
M  V30 1763 2 1741 1742
M  V30 1764 1 1741 1746
M  V30 1765 1 1746 1747
M  V30 1766 1 1746 1754
M  V30 1767 1 1747 1748
M  V30 1768 1 1747 1750
M  V30 1769 1 1747 1755
M  V30 1770 2 1748 1749
M  V30 1771 1 1748 1763
M  V30 1772 1 1750 1751
M  V30 1773 1 1750 1756
M  V30 1774 1 1750 1757
M  V30 1775 1 1751 1752
M  V30 1776 1 1751 1758
M  V30 1777 1 1751 1759
M  V30 1778 1 1752 1753
M  V30 1779 1 1753 1760
M  V30 1780 1 1753 1761
M  V30 1781 1 1753 1762
M  V30 1782 1 1763 1764
M  V30 1783 1 1763 1768
M  V30 1784 1 1764 1765
M  V30 1785 1 1764 1767
M  V30 1786 1 1764 1769
M  V30 1787 2 1765 1766
M  V30 1788 1 1765 1773
M  V30 1789 1 1767 1770
M  V30 1790 1 1767 1771
M  V30 1791 1 1767 1772
M  V30 1792 1 1773 1774
M  V30 1793 1 1773 1785
M  V30 1794 1 1774 1775
M  V30 1795 1 1774 1777
M  V30 1796 1 1774 1786
M  V30 1797 2 1775 1776
M  V30 1798 1 1775 1794
M  V30 1799 1 1777 1778
M  V30 1800 1 1777 1787
M  V30 1801 1 1777 1788
M  V30 1802 2 1778 1779
M  V30 1803 1 1778 1780
M  V30 1804 1 1779 1781
M  V30 1805 1 1779 1789
M  V30 1806 2 1780 1782
M  V30 1807 1 1780 1790
M  V30 1808 2 1781 1783
M  V30 1809 1 1781 1791
M  V30 1810 1 1782 1783
M  V30 1811 1 1782 1792
M  V30 1812 1 1783 1784
M  V30 1813 1 1784 1793
M  V30 1814 1 1794 1795
M  V30 1815 1 1794 1802
M  V30 1816 1 1795 1796
M  V30 1817 1 1795 1798
M  V30 1818 1 1795 1803
M  V30 1819 2 1796 1797
M  V30 1820 1 1796 1813
M  V30 1821 1 1798 1799
M  V30 1822 1 1798 1804
M  V30 1823 1 1798 1805
M  V30 1824 1 1799 1800
M  V30 1825 1 1799 1801
M  V30 1826 1 1799 1806
M  V30 1827 1 1800 1807
M  V30 1828 1 1800 1808
M  V30 1829 1 1800 1809
M  V30 1830 1 1801 1810
M  V30 1831 1 1801 1811
M  V30 1832 1 1801 1812
M  V30 1833 1 1813 1814
M  V30 1834 1 1813 1822
M  V30 1835 1 1814 1815
M  V30 1836 1 1814 1817
M  V30 1837 1 1814 1823
M  V30 1838 2 1815 1816
M  V30 1839 1 1815 1828
M  V30 1840 1 1817 1818
M  V30 1841 1 1817 1824
M  V30 1842 1 1817 1825
M  V30 1843 1 1818 1819
M  V30 1844 1 1818 1826
M  V30 1845 1 1818 1827
M  V30 1846 2 1819 1820
M  V30 1847 1 1819 1821
M  V30 1848 1 1828 1829
M  V30 1849 1 1828 1837
M  V30 1850 1 1829 1830
M  V30 1851 1 1829 1832
M  V30 1852 1 1829 1838
M  V30 1853 2 1830 1831
M  V30 1854 1 1830 1843
M  V30 1855 1 1832 1833
M  V30 1856 1 1832 1839
M  V30 1857 1 1832 1840
M  V30 1858 1 1833 1834
M  V30 1859 1 1833 1841
M  V30 1860 1 1833 1842
M  V30 1861 2 1834 1835
M  V30 1862 1 1834 1836
M  V30 1863 1 1843 1844
M  V30 1864 1 1843 1848
M  V30 1865 1 1844 1845
M  V30 1866 1 1844 1847
M  V30 1867 1 1844 1849
M  V30 1868 2 1845 1846
M  V30 1869 1 1845 1853
M  V30 1870 1 1847 1850
M  V30 1871 1 1847 1851
M  V30 1872 1 1847 1852
M  V30 1873 1 1853 1854
M  V30 1874 1 1853 1859
M  V30 1875 1 1854 1855
M  V30 1876 1 1854 1857
M  V30 1877 1 1854 1860
M  V30 1878 2 1855 1856
M  V30 1879 1 1855 1864
M  V30 1880 1 1857 1858
M  V30 1881 1 1857 1861
M  V30 1882 1 1857 1862
M  V30 1883 1 1858 1863
M  V30 1884 1 1864 1865
M  V30 1885 1 1864 1871
M  V30 1886 1 1865 1866
M  V30 1887 1 1865 1868
M  V30 1888 1 1865 1872
M  V30 1889 2 1866 1867
M  V30 1890 1 1866 1880
M  V30 1891 1 1868 1869
M  V30 1892 1 1868 1870
M  V30 1893 1 1868 1873
M  V30 1894 1 1869 1874
M  V30 1895 1 1869 1875
M  V30 1896 1 1869 1876
M  V30 1897 1 1870 1877
M  V30 1898 1 1870 1878
M  V30 1899 1 1870 1879
M  V30 1900 1 1880 1881
M  V30 1901 1 1880 1888
M  V30 1902 1 1881 1882
M  V30 1903 1 1881 1884
M  V30 1904 1 1881 1889
M  V30 1905 2 1882 1883
M  V30 1906 1 1882 1899
M  V30 1907 1 1884 1885
M  V30 1908 1 1884 1886
M  V30 1909 1 1884 1890
M  V30 1910 1 1885 1887
M  V30 1911 1 1885 1891
M  V30 1912 1 1885 1892
M  V30 1913 1 1886 1893
M  V30 1914 1 1886 1894
M  V30 1915 1 1886 1895
M  V30 1916 1 1887 1896
M  V30 1917 1 1887 1897
M  V30 1918 1 1887 1898
M  V30 1919 1 1899 1900
M  V30 1920 1 1899 1909
M  V30 1921 1 1900 1901
M  V30 1922 1 1900 1903
M  V30 1923 1 1900 1910
M  V30 1924 2 1901 1902
M  V30 1925 1 1901 1916
M  V30 1926 1 1903 1904
M  V30 1927 1 1903 1911
M  V30 1928 1 1903 1912
M  V30 1929 1 1904 1905
M  V30 1930 2 1904 1906
M  V30 1931 2 1905 1907
M  V30 1932 1 1906 1908
M  V30 1933 1 1906 1913
M  V30 1934 1 1907 1908
M  V30 1935 1 1907 1914
M  V30 1936 1 1908 1915
M  V30 1937 1 1916 1917
M  V30 1938 1 1916 1927
M  V30 1939 1 1917 1918
M  V30 1940 1 1917 1920
M  V30 1941 1 1917 1928
M  V30 1942 2 1918 1919
M  V30 1943 1 1918 1940
M  V30 1944 1 1920 1921
M  V30 1945 1 1920 1929
M  V30 1946 1 1920 1930
M  V30 1947 1 1921 1922
M  V30 1948 1 1921 1931
M  V30 1949 1 1921 1932
M  V30 1950 1 1922 1923
M  V30 1951 1 1922 1933
M  V30 1952 1 1922 1934
M  V30 1953 1 1923 1924
M  V30 1954 1 1923 1935
M  V30 1955 1 1924 1925
M  V30 1956 2 1924 1926
M  V30 1957 1 1925 1936
M  V30 1958 1 1925 1937
M  V30 1959 1 1926 1938
M  V30 1960 1 1926 1939
M  V30 1961 1 1940 1941
M  V30 1962 1 1940 1948
M  V30 1963 1 1941 1942
M  V30 1964 1 1941 1944
M  V30 1965 1 1941 1949
M  V30 1966 2 1942 1943
M  V30 1967 1 1942 1952
M  V30 1968 1 1944 1945
M  V30 1969 1 1944 1950
M  V30 1970 1 1944 1951
M  V30 1971 2 1945 1946
M  V30 1972 1 1945 1947
M  V30 1973 1 1952 1953
M  V30 1974 1 1952 1960
M  V30 1975 1 1953 1954
M  V30 1976 1 1953 1956
M  V30 1977 1 1953 1961
M  V30 1978 2 1954 1955
M  V30 1979 1 1954 1971
M  V30 1980 1 1956 1957
M  V30 1981 1 1956 1962
M  V30 1982 1 1956 1963
M  V30 1983 1 1957 1958
M  V30 1984 1 1957 1959
M  V30 1985 1 1957 1964
M  V30 1986 1 1958 1965
M  V30 1987 1 1958 1966
M  V30 1988 1 1958 1967
M  V30 1989 1 1959 1968
M  V30 1990 1 1959 1969
M  V30 1991 1 1959 1970
M  V30 1992 1 1971 1972
M  V30 1993 1 1971 1976
M  V30 1994 1 1972 1973
M  V30 1995 1 1972 1975
M  V30 1996 1 1972 1977
M  V30 1997 2 1973 1974
M  V30 1998 1 1973 1981
M  V30 1999 1 1975 1978
M  V30 2000 1 1975 1979
M  V30 2001 1 1975 1980
M  V30 2002 1 1981 1982
M  V30 2003 1 1981 1986
M  V30 2004 1 1982 1983
M  V30 2005 1 1982 1985
M  V30 2006 1 1982 1987
M  V30 2007 2 1983 1984
M  V30 2008 1 1983 1991
M  V30 2009 1 1985 1988
M  V30 2010 1 1985 1989
M  V30 2011 1 1985 1990
M  V30 2012 1 1991 1992
M  V30 2013 1 1991 2002
M  V30 2014 1 1992 1993
M  V30 2015 1 1992 1995
M  V30 2016 1 1992 2003
M  V30 2017 2 1993 1994
M  V30 2018 1 1993 2015
M  V30 2019 1 1995 1996
M  V30 2020 1 1995 2004
M  V30 2021 1 1995 2005
M  V30 2022 1 1996 1997
M  V30 2023 1 1996 2006
M  V30 2024 1 1996 2007
M  V30 2025 1 1997 1998
M  V30 2026 1 1997 2008
M  V30 2027 1 1997 2009
M  V30 2028 1 1998 1999
M  V30 2029 1 1998 2010
M  V30 2030 1 1999 2000
M  V30 2031 2 1999 2001
M  V30 2032 1 2000 2011
M  V30 2033 1 2000 2012
M  V30 2034 1 2001 2013
M  V30 2035 1 2001 2014
M  V30 2036 1 2015 2016
M  V30 2037 1 2015 2023
M  V30 2038 1 2016 2017
M  V30 2039 1 2016 2019
M  V30 2040 1 2016 2024
M  V30 2041 2 2017 2018
M  V30 2042 1 2017 2029
M  V30 2043 1 2019 2020
M  V30 2044 1 2019 2025
M  V30 2045 1 2019 2026
M  V30 2046 2 2020 2021
M  V30 2047 1 2020 2022
M  V30 2048 1 2022 2027
M  V30 2049 1 2022 2028
M  V30 2050 1 2029 2030
M  V30 2051 1 2029 2035
M  V30 2052 1 2030 2031
M  V30 2053 1 2030 2033
M  V30 2054 1 2030 2036
M  V30 2055 2 2031 2032
M  V30 2056 1 2031 2040
M  V30 2057 1 2033 2034
M  V30 2058 1 2033 2037
M  V30 2059 1 2033 2038
M  V30 2060 1 2034 2039
M  V30 2061 1 2040 2041
M  V30 2062 1 2040 2048
M  V30 2063 1 2041 2042
M  V30 2064 1 2041 2044
M  V30 2065 1 2041 2049
M  V30 2066 2 2042 2043
M  V30 2067 1 2042 2059
M  V30 2068 1 2044 2045
M  V30 2069 1 2044 2050
M  V30 2070 1 2044 2051
M  V30 2071 1 2045 2046
M  V30 2072 1 2045 2047
M  V30 2073 1 2045 2052
M  V30 2074 1 2046 2053
M  V30 2075 1 2046 2054
M  V30 2076 1 2046 2055
M  V30 2077 1 2047 2056
M  V30 2078 1 2047 2057
M  V30 2079 1 2047 2058
M  V30 2080 1 2059 2060
M  V30 2081 1 2059 2066
M  V30 2082 1 2060 2061
M  V30 2083 1 2060 2063
M  V30 2084 1 2060 2067
M  V30 2085 2 2061 2062
M  V30 2086 1 2061 2075
M  V30 2087 1 2063 2064
M  V30 2088 1 2063 2065
M  V30 2089 1 2063 2068
M  V30 2090 1 2064 2069
M  V30 2091 1 2064 2070
M  V30 2092 1 2064 2071
M  V30 2093 1 2065 2072
M  V30 2094 1 2065 2073
M  V30 2095 1 2065 2074
M  V30 2096 1 2075 2076
M  V30 2097 1 2075 2079
M  V30 2098 1 2076 2077
M  V30 2099 1 2076 2080
M  V30 2100 1 2076 2081
M  V30 2101 2 2077 2078
M  V30 2102 1 2077 2082
M  V30 2103 1 2082 2083
M  V30 2104 1 2082 2091
M  V30 2105 1 2083 2084
M  V30 2106 1 2083 2086
M  V30 2107 1 2083 2092
M  V30 2108 2 2084 2085
M  V30 2109 1 2084 2097
M  V30 2110 1 2086 2087
M  V30 2111 1 2086 2093
M  V30 2112 1 2086 2094
M  V30 2113 1 2087 2088
M  V30 2114 1 2087 2095
M  V30 2115 1 2087 2096
M  V30 2116 2 2088 2089
M  V30 2117 1 2088 2090
M  V30 2118 1 2097 2098
M  V30 2119 1 2097 2105
M  V30 2120 1 2098 2099
M  V30 2121 1 2098 2101
M  V30 2122 1 2098 2106
M  V30 2123 2 2099 2100
M  V30 2124 1 2099 2111
M  V30 2125 1 2101 2102
M  V30 2126 1 2101 2107
M  V30 2127 1 2101 2108
M  V30 2128 2 2102 2103
M  V30 2129 1 2102 2104
M  V30 2130 1 2104 2109
M  V30 2131 1 2104 2110
M  V30 2132 1 2111 2112
M  V30 2133 1 2111 2120
M  V30 2134 1 2112 2113
M  V30 2135 1 2112 2115
M  V30 2136 1 2112 2121
M  V30 2137 2 2113 2114
M  V30 2138 1 2113 2128
M  V30 2139 1 2115 2116
M  V30 2140 1 2115 2122
M  V30 2141 1 2115 2123
M  V30 2142 1 2116 2117
M  V30 2143 1 2116 2124
M  V30 2144 1 2116 2125
M  V30 2145 2 2117 2118
M  V30 2146 1 2117 2119
M  V30 2147 1 2119 2126
M  V30 2148 1 2119 2127
M  V30 2149 1 2128 2129
M  V30 2150 1 2128 2135
M  V30 2151 1 2129 2130
M  V30 2152 1 2129 2132
M  V30 2153 1 2129 2136
M  V30 2154 2 2130 2131
M  V30 2155 1 2130 2144
M  V30 2156 1 2132 2133
M  V30 2157 1 2132 2134
M  V30 2158 1 2132 2137
M  V30 2159 1 2133 2138
M  V30 2160 1 2133 2139
M  V30 2161 1 2133 2140
M  V30 2162 1 2134 2141
M  V30 2163 1 2134 2142
M  V30 2164 1 2134 2143
M  V30 2165 1 2144 2145
M  V30 2166 1 2144 2152
M  V30 2167 1 2145 2146
M  V30 2168 1 2145 2148
M  V30 2169 1 2145 2153
M  V30 2170 2 2146 2147
M  V30 2171 1 2146 2163
M  V30 2172 1 2148 2149
M  V30 2173 1 2148 2150
M  V30 2174 1 2148 2154
M  V30 2175 1 2149 2151
M  V30 2176 1 2149 2155
M  V30 2177 1 2149 2156
M  V30 2178 1 2150 2157
M  V30 2179 1 2150 2158
M  V30 2180 1 2150 2159
M  V30 2181 1 2151 2160
M  V30 2182 1 2151 2161
M  V30 2183 1 2151 2162
M  V30 2184 1 2163 2164
M  V30 2185 1 2163 2172
M  V30 2186 1 2164 2165
M  V30 2187 1 2164 2167
M  V30 2188 1 2164 2173
M  V30 2189 2 2165 2166
M  V30 2190 1 2165 2185
M  V30 2191 1 2167 2168
M  V30 2192 1 2167 2174
M  V30 2193 1 2167 2175
M  V30 2194 1 2168 2169
M  V30 2195 1 2168 2176
M  V30 2196 1 2168 2177
M  V30 2197 1 2169 2170
M  V30 2198 1 2169 2178
M  V30 2199 1 2169 2179
M  V30 2200 1 2170 2171
M  V30 2201 1 2170 2180
M  V30 2202 1 2170 2181
M  V30 2203 1 2171 2182
M  V30 2204 1 2171 2183
M  V30 2205 1 2171 2184
M  V30 2206 1 2185 2186
M  V30 2207 1 2185 2192
M  V30 2208 1 2186 2187
M  V30 2209 1 2186 2189
M  V30 2210 1 2186 2193
M  V30 2211 2 2187 2188
M  V30 2212 1 2187 2201
M  V30 2213 1 2189 2190
M  V30 2214 1 2189 2191
M  V30 2215 1 2189 2194
M  V30 2216 1 2190 2195
M  V30 2217 1 2190 2196
M  V30 2218 1 2190 2197
M  V30 2219 1 2191 2198
M  V30 2220 1 2191 2199
M  V30 2221 1 2191 2200
M  V30 2222 1 2201 2202
M  V30 2223 1 2201 2207
M  V30 2224 1 2202 2203
M  V30 2225 1 2202 2205
M  V30 2226 1 2202 2208
M  V30 2227 2 2203 2204
M  V30 2228 1 2203 2212
M  V30 2229 1 2205 2206
M  V30 2230 1 2205 2209
M  V30 2231 1 2205 2210
M  V30 2232 1 2206 2211
M  V30 2233 1 2212 2213
M  V30 2234 1 2212 2220
M  V30 2235 1 2213 2214
M  V30 2236 1 2213 2216
M  V30 2237 1 2213 2221
M  V30 2238 2 2214 2215
M  V30 2239 1 2214 2224
M  V30 2240 1 2216 2217
M  V30 2241 1 2216 2222
M  V30 2242 1 2216 2223
M  V30 2243 2 2217 2218
M  V30 2244 1 2217 2219
M  V30 2245 1 2224 2225
M  V30 2246 1 2224 2235
M  V30 2247 1 2225 2226
M  V30 2248 1 2225 2228
M  V30 2249 1 2225 2236
M  V30 2250 2 2226 2227
M  V30 2251 1 2226 2244
M  V30 2252 1 2228 2229
M  V30 2253 1 2228 2237
M  V30 2254 1 2228 2238
M  V30 2255 2 2229 2230
M  V30 2256 1 2229 2231
M  V30 2257 1 2230 2232
M  V30 2258 1 2230 2239
M  V30 2259 2 2231 2233
M  V30 2260 1 2231 2240
M  V30 2261 2 2232 2234
M  V30 2262 1 2232 2241
M  V30 2263 1 2233 2234
M  V30 2264 1 2233 2242
M  V30 2265 1 2234 2243
M  V30 2266 1 2244 2245
M  V30 2267 1 2244 2248
M  V30 2268 1 2245 2246
M  V30 2269 1 2245 2249
M  V30 2270 1 2245 2250
M  V30 2271 2 2246 2247
M  V30 2272 1 2246 2251
M  V30 2273 1 2251 2252
M  V30 2274 1 2251 2259
M  V30 2275 1 2252 2253
M  V30 2276 1 2252 2255
M  V30 2277 1 2252 2260
M  V30 2278 2 2253 2254
M  V30 2279 1 2253 2268
M  V30 2280 1 2255 2256
M  V30 2281 1 2255 2261
M  V30 2282 1 2255 2262
M  V30 2283 1 2256 2257
M  V30 2284 1 2256 2263
M  V30 2285 1 2256 2264
M  V30 2286 1 2257 2258
M  V30 2287 1 2258 2265
M  V30 2288 1 2258 2266
M  V30 2289 1 2258 2267
M  V30 2290 1 2268 2269
M  V30 2291 1 2268 2275
M  V30 2292 1 2269 2270
M  V30 2293 1 2269 2272
M  V30 2294 1 2269 2276
M  V30 2295 2 2270 2271
M  V30 2296 1 2270 2282
M  V30 2297 1 2272 2273
M  V30 2298 1 2272 2274
M  V30 2299 1 2272 2277
M  V30 2300 1 2273 2278
M  V30 2301 1 2274 2279
M  V30 2302 1 2274 2280
M  V30 2303 1 2274 2281
M  V30 2304 1 2282 2283
M  V30 2305 1 2282 2293
M  V30 2306 1 2283 2284
M  V30 2307 1 2283 2286
M  V30 2308 1 2283 2294
M  V30 2309 2 2284 2285
M  V30 2310 1 2284 2295
M  V30 2311 1 2286 2287
M  V30 2312 1 2286 2296
M  V30 2313 1 2286 2297
M  V30 2314 1 2287 2288
M  V30 2315 1 2287 2298
M  V30 2316 1 2287 2299
M  V30 2317 1 2288 2289
M  V30 2318 1 2288 2300
M  V30 2319 1 2288 2301
M  V30 2320 1 2289 2290
M  V30 2321 1 2289 2302
M  V30 2322 1 2290 2291
M  V30 2323 2 2290 2292
M  V30 2324 1 2291 2303
M  V30 2325 1 2291 2304
M  V30 2326 1 2292 2305
M  V30 2327 1 2292 2306
M  V30 2328 1 2307 2308
M  V30 2329 1 2307 2318
M  V30 2330 1 2307 2319
M  V30 2331 1 2308 2309
M  V30 2332 1 2308 2311
M  V30 2333 1 2308 2320
M  V30 2334 2 2309 2310
M  V30 2335 1 2309 2328
M  V30 2336 1 2311 2312
M  V30 2337 1 2311 2321
M  V30 2338 1 2311 2322
M  V30 2339 2 2312 2313
M  V30 2340 1 2312 2314
M  V30 2341 1 2313 2315
M  V30 2342 1 2313 2323
M  V30 2343 2 2314 2316
M  V30 2344 1 2314 2324
M  V30 2345 2 2315 2317
M  V30 2346 1 2315 2325
M  V30 2347 1 2316 2317
M  V30 2348 1 2316 2326
M  V30 2349 1 2317 2327
M  V30 2350 1 2328 2329
M  V30 2351 1 2328 2334
M  V30 2352 1 2329 2330
M  V30 2353 1 2329 2332
M  V30 2354 1 2329 2335
M  V30 2355 2 2330 2331
M  V30 2356 1 2330 2342
M  V30 2357 1 2332 2333
M  V30 2358 1 2332 2336
M  V30 2359 1 2332 2337
M  V30 2360 1 2333 2334
M  V30 2361 1 2333 2338
M  V30 2362 1 2333 2339
M  V30 2363 1 2334 2340
M  V30 2364 1 2334 2341
M  V30 2365 1 2342 2343
M  V30 2366 1 2342 2349
M  V30 2367 1 2343 2344
M  V30 2368 1 2343 2346
M  V30 2369 1 2343 2350
M  V30 2370 2 2344 2345
M  V30 2371 1 2344 2358
M  V30 2372 1 2346 2347
M  V30 2373 1 2346 2348
M  V30 2374 1 2346 2351
M  V30 2375 1 2347 2352
M  V30 2376 1 2347 2353
M  V30 2377 1 2347 2354
M  V30 2378 1 2348 2355
M  V30 2379 1 2348 2356
M  V30 2380 1 2348 2357
M  V30 2381 1 2358 2359
M  V30 2382 1 2358 2367
M  V30 2383 1 2359 2360
M  V30 2384 1 2359 2362
M  V30 2385 1 2359 2368
M  V30 2386 2 2360 2361
M  V30 2387 1 2360 2380
M  V30 2388 1 2362 2363
M  V30 2389 1 2362 2369
M  V30 2390 1 2362 2370
M  V30 2391 1 2363 2364
M  V30 2392 1 2363 2371
M  V30 2393 1 2363 2372
M  V30 2394 1 2364 2365
M  V30 2395 1 2364 2373
M  V30 2396 1 2364 2374
M  V30 2397 1 2365 2366
M  V30 2398 1 2365 2375
M  V30 2399 1 2365 2376
M  V30 2400 1 2366 2377
M  V30 2401 1 2366 2378
M  V30 2402 1 2366 2379
M  V30 2403 1 2380 2381
M  V30 2404 1 2380 2394
M  V30 2405 1 2381 2382
M  V30 2406 1 2381 2384
M  V30 2407 1 2381 2395
M  V30 2408 2 2382 2383
M  V30 2409 1 2382 2404
M  V30 2410 1 2384 2385
M  V30 2411 1 2384 2396
M  V30 2412 1 2384 2397
M  V30 2413 2 2385 2386
M  V30 2414 1 2385 2387
M  V30 2415 1 2386 2388
M  V30 2416 1 2386 2398
M  V30 2417 2 2387 2389
M  V30 2418 1 2387 2390
M  V30 2419 1 2388 2389
M  V30 2420 1 2388 2399
M  V30 2421 1 2389 2391
M  V30 2422 2 2390 2392
M  V30 2423 1 2390 2400
M  V30 2424 2 2391 2393
M  V30 2425 1 2391 2401
M  V30 2426 1 2392 2393
M  V30 2427 1 2392 2402
M  V30 2428 1 2393 2403
M  V30 2429 1 2404 2405
M  V30 2430 1 2404 2409
M  V30 2431 1 2405 2406
M  V30 2432 1 2405 2408
M  V30 2433 1 2405 2410
M  V30 2434 2 2406 2407
M  V30 2435 1 2406 2414
M  V30 2436 1 2408 2411
M  V30 2437 1 2408 2412
M  V30 2438 1 2408 2413
M  V30 2439 1 2414 2415
M  V30 2440 1 2414 2420
M  V30 2441 1 2415 2416
M  V30 2442 1 2415 2418
M  V30 2443 1 2415 2421
M  V30 2444 2 2416 2417
M  V30 2445 1 2416 2425
M  V30 2446 1 2418 2419
M  V30 2447 1 2418 2422
M  V30 2448 1 2418 2423
M  V30 2449 1 2419 2424
M  V30 2450 1 2425 2426
M  V30 2451 1 2425 2431
M  V30 2452 1 2426 2427
M  V30 2453 1 2426 2429
M  V30 2454 1 2426 2432
M  V30 2455 2 2427 2428
M  V30 2456 1 2427 2439
M  V30 2457 1 2429 2430
M  V30 2458 1 2429 2433
M  V30 2459 1 2429 2434
M  V30 2460 1 2430 2431
M  V30 2461 1 2430 2435
M  V30 2462 1 2430 2436
M  V30 2463 1 2431 2437
M  V30 2464 1 2431 2438
M  V30 2465 1 2439 2440
M  V30 2466 1 2439 2448
M  V30 2467 1 2440 2441
M  V30 2468 1 2440 2443
M  V30 2469 1 2440 2449
M  V30 2470 2 2441 2442
M  V30 2471 1 2441 2454
M  V30 2472 1 2443 2444
M  V30 2473 1 2443 2450
M  V30 2474 1 2443 2451
M  V30 2475 1 2444 2445
M  V30 2476 1 2444 2452
M  V30 2477 1 2444 2453
M  V30 2478 2 2445 2446
M  V30 2479 1 2445 2447
M  V30 2480 1 2454 2455
M  V30 2481 1 2454 2461
M  V30 2482 1 2455 2456
M  V30 2483 1 2455 2458
M  V30 2484 1 2455 2462
M  V30 2485 2 2456 2457
M  V30 2486 1 2456 2470
M  V30 2487 1 2458 2459
M  V30 2488 1 2458 2460
M  V30 2489 1 2458 2463
M  V30 2490 1 2459 2464
M  V30 2491 1 2459 2465
M  V30 2492 1 2459 2466
M  V30 2493 1 2460 2467
M  V30 2494 1 2460 2468
M  V30 2495 1 2460 2469
M  V30 2496 1 2470 2471
M  V30 2497 1 2470 2481
M  V30 2498 1 2471 2472
M  V30 2499 1 2471 2474
M  V30 2500 1 2471 2482
M  V30 2501 2 2472 2473
M  V30 2502 1 2472 2490
M  V30 2503 1 2474 2475
M  V30 2504 1 2474 2483
M  V30 2505 1 2474 2484
M  V30 2506 2 2475 2476
M  V30 2507 1 2475 2477
M  V30 2508 1 2476 2478
M  V30 2509 1 2476 2485
M  V30 2510 2 2477 2479
M  V30 2511 1 2477 2486
M  V30 2512 2 2478 2480
M  V30 2513 1 2478 2487
M  V30 2514 1 2479 2480
M  V30 2515 1 2479 2488
M  V30 2516 1 2480 2489
M  V30 2517 1 2490 2491
M  V30 2518 1 2490 2496
M  V30 2519 1 2491 2492
M  V30 2520 1 2491 2494
M  V30 2521 1 2491 2497
M  V30 2522 2 2492 2493
M  V30 2523 1 2492 2501
M  V30 2524 1 2494 2495
M  V30 2525 1 2494 2498
M  V30 2526 1 2494 2499
M  V30 2527 1 2495 2500
M  V30 2528 1 2501 2502
M  V30 2529 1 2501 2512
M  V30 2530 1 2502 2503
M  V30 2531 1 2502 2505
M  V30 2532 1 2502 2513
M  V30 2533 2 2503 2504
M  V30 2534 1 2503 2521
M  V30 2535 1 2505 2506
M  V30 2536 1 2505 2514
M  V30 2537 1 2505 2515
M  V30 2538 2 2506 2507
M  V30 2539 1 2506 2508
M  V30 2540 1 2507 2509
M  V30 2541 1 2507 2516
M  V30 2542 2 2508 2510
M  V30 2543 1 2508 2517
M  V30 2544 2 2509 2511
M  V30 2545 1 2509 2518
M  V30 2546 1 2510 2511
M  V30 2547 1 2510 2519
M  V30 2548 1 2511 2520
M  V30 2549 1 2521 2522
M  V30 2550 1 2521 2527
M  V30 2551 1 2522 2523
M  V30 2552 1 2522 2525
M  V30 2553 1 2522 2528
M  V30 2554 2 2523 2524
M  V30 2555 1 2523 2532
M  V30 2556 1 2525 2526
M  V30 2557 1 2525 2529
M  V30 2558 1 2525 2530
M  V30 2559 1 2526 2531
M  V30 2560 1 2532 2533
M  V30 2561 1 2532 2543
M  V30 2562 1 2533 2534
M  V30 2563 1 2533 2536
M  V30 2564 1 2533 2544
M  V30 2565 2 2534 2535
M  V30 2566 1 2534 2556
M  V30 2567 1 2536 2537
M  V30 2568 1 2536 2545
M  V30 2569 1 2536 2546
M  V30 2570 1 2537 2538
M  V30 2571 1 2537 2547
M  V30 2572 1 2537 2548
M  V30 2573 1 2538 2539
M  V30 2574 1 2538 2549
M  V30 2575 1 2538 2550
M  V30 2576 1 2539 2540
M  V30 2577 1 2539 2551
M  V30 2578 1 2540 2541
M  V30 2579 2 2540 2542
M  V30 2580 1 2541 2552
M  V30 2581 1 2541 2553
M  V30 2582 1 2542 2554
M  V30 2583 1 2542 2555
M  V30 2584 1 2556 2557
M  V30 2585 1 2556 2568
M  V30 2586 1 2557 2558
M  V30 2587 1 2557 2560
M  V30 2588 1 2557 2569
M  V30 2589 2 2558 2559
M  V30 2590 1 2558 2577
M  V30 2591 1 2560 2561
M  V30 2592 1 2560 2570
M  V30 2593 1 2560 2571
M  V30 2594 2 2561 2562
M  V30 2595 1 2561 2563
M  V30 2596 1 2562 2564
M  V30 2597 1 2562 2572
M  V30 2598 2 2563 2565
M  V30 2599 1 2563 2573
M  V30 2600 2 2564 2566
M  V30 2601 1 2564 2574
M  V30 2602 1 2565 2566
M  V30 2603 1 2565 2575
M  V30 2604 1 2566 2567
M  V30 2605 1 2567 2576
M  V30 2606 1 2577 2578
M  V30 2607 1 2577 2583
M  V30 2608 1 2578 2579
M  V30 2609 1 2578 2581
M  V30 2610 1 2578 2584
M  V30 2611 2 2579 2580
M  V30 2612 1 2579 2588
M  V30 2613 1 2581 2582
M  V30 2614 1 2581 2585
M  V30 2615 1 2581 2586
M  V30 2616 1 2582 2587
M  V30 2617 1 2588 2589
M  V30 2618 1 2588 2594
M  V30 2619 1 2589 2590
M  V30 2620 1 2589 2592
M  V30 2621 1 2589 2595
M  V30 2622 2 2590 2591
M  V30 2623 1 2590 2599
M  V30 2624 1 2592 2593
M  V30 2625 1 2592 2596
M  V30 2626 1 2592 2597
M  V30 2627 1 2593 2598
M  V30 2628 1 2599 2600
M  V30 2629 1 2599 2608
M  V30 2630 1 2600 2601
M  V30 2631 1 2600 2603
M  V30 2632 1 2600 2609
M  V30 2633 2 2601 2602
M  V30 2634 1 2601 2621
M  V30 2635 1 2603 2604
M  V30 2636 1 2603 2610
M  V30 2637 1 2603 2611
M  V30 2638 1 2604 2605
M  V30 2639 1 2604 2612
M  V30 2640 1 2604 2613
M  V30 2641 1 2605 2606
M  V30 2642 1 2605 2614
M  V30 2643 1 2605 2615
M  V30 2644 1 2606 2607
M  V30 2645 1 2606 2616
M  V30 2646 1 2606 2617
M  V30 2647 1 2607 2618
M  V30 2648 1 2607 2619
M  V30 2649 1 2607 2620
M  V30 2650 1 2621 2622
M  V30 2651 1 2621 2627
M  V30 2652 1 2622 2623
M  V30 2653 1 2622 2625
M  V30 2654 1 2622 2628
M  V30 2655 2 2623 2624
M  V30 2656 1 2623 2632
M  V30 2657 1 2625 2626
M  V30 2658 1 2625 2629
M  V30 2659 1 2625 2630
M  V30 2660 1 2626 2631
M  V30 2661 1 2632 2633
M  V30 2662 1 2632 2640
M  V30 2663 1 2633 2634
M  V30 2664 1 2633 2636
M  V30 2665 1 2633 2641
M  V30 2666 2 2634 2635
M  V30 2667 1 2634 2644
M  V30 2668 1 2636 2637
M  V30 2669 1 2636 2642
M  V30 2670 1 2636 2643
M  V30 2671 2 2637 2638
M  V30 2672 1 2637 2639
M  V30 2673 1 2644 2645
M  V30 2674 1 2644 2651
M  V30 2675 1 2645 2646
M  V30 2676 1 2645 2648
M  V30 2677 1 2645 2652
M  V30 2678 2 2646 2647
M  V30 2679 1 2646 2660
M  V30 2680 1 2648 2649
M  V30 2681 1 2648 2650
M  V30 2682 1 2648 2653
M  V30 2683 1 2649 2654
M  V30 2684 1 2649 2655
M  V30 2685 1 2649 2656
M  V30 2686 1 2650 2657
M  V30 2687 1 2650 2658
M  V30 2688 1 2650 2659
M  V30 2689 1 2660 2661
M  V30 2690 1 2660 2674
M  V30 2691 1 2661 2662
M  V30 2692 1 2661 2664
M  V30 2693 1 2661 2675
M  V30 2694 2 2662 2663
M  V30 2695 1 2662 2684
M  V30 2696 1 2664 2665
M  V30 2697 1 2664 2676
M  V30 2698 1 2664 2677
M  V30 2699 2 2665 2666
M  V30 2700 1 2665 2667
M  V30 2701 1 2666 2668
M  V30 2702 1 2666 2678
M  V30 2703 2 2667 2669
M  V30 2704 1 2667 2670
M  V30 2705 1 2668 2669
M  V30 2706 1 2668 2679
M  V30 2707 1 2669 2671
M  V30 2708 2 2670 2672
M  V30 2709 1 2670 2680
M  V30 2710 2 2671 2673
M  V30 2711 1 2671 2681
M  V30 2712 1 2672 2673
M  V30 2713 1 2672 2682
M  V30 2714 1 2673 2683
M  V30 2715 1 2684 2685
M  V30 2716 1 2684 2690
M  V30 2717 1 2685 2686
M  V30 2718 1 2685 2688
M  V30 2719 1 2685 2691
M  V30 2720 2 2686 2687
M  V30 2721 1 2686 2695
M  V30 2722 1 2688 2689
M  V30 2723 1 2688 2692
M  V30 2724 1 2688 2693
M  V30 2725 1 2689 2694
M  V30 2726 1 2695 2696
M  V30 2727 1 2695 2706
M  V30 2728 1 2696 2697
M  V30 2729 1 2696 2699
M  V30 2730 1 2696 2707
M  V30 2731 2 2697 2698
M  V30 2732 1 2697 2715
M  V30 2733 1 2699 2700
M  V30 2734 1 2699 2708
M  V30 2735 1 2699 2709
M  V30 2736 2 2700 2701
M  V30 2737 1 2700 2702
M  V30 2738 1 2701 2703
M  V30 2739 1 2701 2710
M  V30 2740 2 2702 2704
M  V30 2741 1 2702 2711
M  V30 2742 2 2703 2705
M  V30 2743 1 2703 2712
M  V30 2744 1 2704 2705
M  V30 2745 1 2704 2713
M  V30 2746 1 2705 2714
M  V30 2747 1 2715 2716
M  V30 2748 1 2715 2719
M  V30 2749 1 2716 2717
M  V30 2750 1 2716 2720
M  V30 2751 1 2716 2721
M  V30 2752 2 2717 2718
M  V30 2753 1 2717 2722
M  V30 2754 1 2722 2723
M  V30 2755 1 2722 2729
M  V30 2756 1 2723 2724
M  V30 2757 1 2723 2726
M  V30 2758 1 2723 2730
M  V30 2759 2 2724 2725
M  V30 2760 1 2724 2738
M  V30 2761 1 2726 2727
M  V30 2762 1 2726 2728
M  V30 2763 1 2726 2731
M  V30 2764 1 2727 2732
M  V30 2765 1 2727 2733
M  V30 2766 1 2727 2734
M  V30 2767 1 2728 2735
M  V30 2768 1 2728 2736
M  V30 2769 1 2728 2737
M  V30 2770 1 2738 2739
M  V30 2771 1 2738 2746
M  V30 2772 1 2739 2740
M  V30 2773 1 2739 2742
M  V30 2774 1 2739 2747
M  V30 2775 2 2740 2741
M  V30 2776 1 2740 2757
M  V30 2777 1 2742 2743
M  V30 2778 1 2742 2748
M  V30 2779 1 2742 2749
M  V30 2780 1 2743 2744
M  V30 2781 1 2743 2745
M  V30 2782 1 2743 2750
M  V30 2783 1 2744 2751
M  V30 2784 1 2744 2752
M  V30 2785 1 2744 2753
M  V30 2786 1 2745 2754
M  V30 2787 1 2745 2755
M  V30 2788 1 2745 2756
M  V30 2789 1 2757 2758
M  V30 2790 1 2757 2765
M  V30 2791 1 2758 2759
M  V30 2792 1 2758 2761
M  V30 2793 1 2758 2766
M  V30 2794 2 2759 2760
M  V30 2795 1 2759 2774
M  V30 2796 1 2761 2762
M  V30 2797 1 2761 2767
M  V30 2798 1 2761 2768
M  V30 2799 1 2762 2763
M  V30 2800 1 2762 2769
M  V30 2801 1 2762 2770
M  V30 2802 1 2763 2764
M  V30 2803 1 2764 2771
M  V30 2804 1 2764 2772
M  V30 2805 1 2764 2773
M  V30 2806 1 2774 2775
M  V30 2807 1 2774 2788
M  V30 2808 1 2775 2776
M  V30 2809 1 2775 2778
M  V30 2810 1 2775 2789
M  V30 2811 2 2776 2777
M  V30 2812 1 2776 2798
M  V30 2813 1 2778 2779
M  V30 2814 1 2778 2790
M  V30 2815 1 2778 2791
M  V30 2816 2 2779 2780
M  V30 2817 1 2779 2781
M  V30 2818 1 2780 2782
M  V30 2819 1 2780 2792
M  V30 2820 2 2781 2783
M  V30 2821 1 2781 2784
M  V30 2822 1 2782 2783
M  V30 2823 1 2782 2793
M  V30 2824 1 2783 2785
M  V30 2825 2 2784 2786
M  V30 2826 1 2784 2794
M  V30 2827 2 2785 2787
M  V30 2828 1 2785 2795
M  V30 2829 1 2786 2787
M  V30 2830 1 2786 2796
M  V30 2831 1 2787 2797
M  V30 2832 1 2798 2799
M  V30 2833 1 2798 2807
M  V30 2834 1 2799 2800
M  V30 2835 1 2799 2802
M  V30 2836 1 2799 2808
M  V30 2837 2 2800 2801
M  V30 2838 1 2800 2813
M  V30 2839 1 2802 2803
M  V30 2840 1 2802 2809
M  V30 2841 1 2802 2810
M  V30 2842 1 2803 2804
M  V30 2843 1 2803 2811
M  V30 2844 1 2803 2812
M  V30 2845 2 2804 2805
M  V30 2846 1 2804 2806
M  V30 2847 1 2813 2814
M  V30 2848 1 2813 2820
M  V30 2849 1 2814 2815
M  V30 2850 1 2814 2817
M  V30 2851 1 2814 2821
M  V30 2852 2 2815 2816
M  V30 2853 1 2815 2829
M  V30 2854 1 2817 2818
M  V30 2855 1 2817 2819
M  V30 2856 1 2817 2822
M  V30 2857 1 2818 2823
M  V30 2858 1 2818 2824
M  V30 2859 1 2818 2825
M  V30 2860 1 2819 2826
M  V30 2861 1 2819 2827
M  V30 2862 1 2819 2828
M  V30 2863 1 2829 2830
M  V30 2864 1 2829 2840
M  V30 2865 1 2830 2831
M  V30 2866 1 2830 2833
M  V30 2867 1 2830 2841
M  V30 2868 2 2831 2832
M  V30 2869 1 2831 2849
M  V30 2870 1 2833 2834
M  V30 2871 1 2833 2842
M  V30 2872 1 2833 2843
M  V30 2873 2 2834 2835
M  V30 2874 1 2834 2836
M  V30 2875 1 2835 2837
M  V30 2876 1 2835 2844
M  V30 2877 2 2836 2838
M  V30 2878 1 2836 2845
M  V30 2879 2 2837 2839
M  V30 2880 1 2837 2846
M  V30 2881 1 2838 2839
M  V30 2882 1 2838 2847
M  V30 2883 1 2839 2848
M  V30 2884 1 2849 2850
M  V30 2885 1 2849 2855
M  V30 2886 1 2850 2851
M  V30 2887 1 2850 2853
M  V30 2888 1 2850 2856
M  V30 2889 2 2851 2852
M  V30 2890 1 2851 2860
M  V30 2891 1 2853 2854
M  V30 2892 1 2853 2857
M  V30 2893 1 2853 2858
M  V30 2894 1 2854 2859
M  V30 2895 1 2860 2861
M  V30 2896 1 2860 2869
M  V30 2897 1 2861 2862
M  V30 2898 1 2861 2864
M  V30 2899 1 2861 2870
M  V30 2900 2 2862 2863
M  V30 2901 1 2862 2875
M  V30 2902 1 2864 2865
M  V30 2903 1 2864 2871
M  V30 2904 1 2864 2872
M  V30 2905 1 2865 2866
M  V30 2906 1 2865 2873
M  V30 2907 1 2865 2874
M  V30 2908 2 2866 2867
M  V30 2909 1 2866 2868
M  V30 2910 1 2875 2876
M  V30 2911 1 2875 2879
M  V30 2912 1 2876 2877
M  V30 2913 1 2876 2880
M  V30 2914 1 2876 2881
M  V30 2915 2 2877 2878
M  V30 2916 1 2877 2882
M  V30 2917 1 2882 2883
M  V30 2918 1 2882 2891
M  V30 2919 1 2883 2884
M  V30 2920 1 2883 2886
M  V30 2921 1 2883 2892
M  V30 2922 2 2884 2885
M  V30 2923 1 2884 2904
M  V30 2924 1 2886 2887
M  V30 2925 1 2886 2893
M  V30 2926 1 2886 2894
M  V30 2927 1 2887 2888
M  V30 2928 1 2887 2895
M  V30 2929 1 2887 2896
M  V30 2930 1 2888 2889
M  V30 2931 1 2888 2897
M  V30 2932 1 2888 2898
M  V30 2933 1 2889 2890
M  V30 2934 1 2889 2899
M  V30 2935 1 2889 2900
M  V30 2936 1 2890 2901
M  V30 2937 1 2890 2902
M  V30 2938 1 2890 2903
M  V30 2939 1 2904 2905
M  V30 2940 1 2904 2912
M  V30 2941 1 2905 2906
M  V30 2942 1 2905 2908
M  V30 2943 1 2905 2913
M  V30 2944 2 2906 2907
M  V30 2945 1 2906 2923
M  V30 2946 1 2908 2909
M  V30 2947 1 2908 2910
M  V30 2948 1 2908 2914
M  V30 2949 1 2909 2911
M  V30 2950 1 2909 2915
M  V30 2951 1 2909 2916
M  V30 2952 1 2910 2917
M  V30 2953 1 2910 2918
M  V30 2954 1 2910 2919
M  V30 2955 1 2911 2920
M  V30 2956 1 2911 2921
M  V30 2957 1 2911 2922
M  V30 2958 1 2923 2924
M  V30 2959 1 2923 2929
M  V30 2960 1 2924 2925
M  V30 2961 1 2924 2927
M  V30 2962 1 2924 2930
M  V30 2963 2 2925 2926
M  V30 2964 1 2925 2937
M  V30 2965 1 2927 2928
M  V30 2966 1 2927 2931
M  V30 2967 1 2927 2932
M  V30 2968 1 2928 2929
M  V30 2969 1 2928 2933
M  V30 2970 1 2928 2934
M  V30 2971 1 2929 2935
M  V30 2972 1 2929 2936
M  V30 2973 1 2937 2938
M  V30 2974 1 2937 2949
M  V30 2975 1 2938 2939
M  V30 2976 1 2938 2941
M  V30 2977 1 2938 2950
M  V30 2978 2 2939 2940
M  V30 2979 1 2939 2958
M  V30 2980 1 2941 2942
M  V30 2981 1 2941 2951
M  V30 2982 1 2941 2952
M  V30 2983 2 2942 2943
M  V30 2984 1 2942 2944
M  V30 2985 1 2943 2945
M  V30 2986 1 2943 2953
M  V30 2987 2 2944 2946
M  V30 2988 1 2944 2954
M  V30 2989 2 2945 2947
M  V30 2990 1 2945 2955
M  V30 2991 1 2946 2947
M  V30 2992 1 2946 2956
M  V30 2993 1 2947 2948
M  V30 2994 1 2948 2957
M  V30 2995 1 2958 2959
M  V30 2996 1 2958 2967
M  V30 2997 1 2959 2960
M  V30 2998 1 2959 2962
M  V30 2999 1 2959 2968
M  V30 3000 2 2960 2961
M  V30 3001 1 2960 2973
M  V30 3002 1 2962 2963
M  V30 3003 1 2962 2969
M  V30 3004 1 2962 2970
M  V30 3005 1 2963 2964
M  V30 3006 1 2963 2971
M  V30 3007 1 2963 2972
M  V30 3008 2 2964 2965
M  V30 3009 1 2964 2966
M  V30 3010 1 2973 2974
M  V30 3011 1 2973 2981
M  V30 3012 1 2974 2975
M  V30 3013 1 2974 2977
M  V30 3014 1 2974 2982
M  V30 3015 2 2975 2976
M  V30 3016 1 2975 2987
M  V30 3017 1 2977 2978
M  V30 3018 1 2977 2983
M  V30 3019 1 2977 2984
M  V30 3020 2 2978 2979
M  V30 3021 1 2978 2980
M  V30 3022 1 2980 2985
M  V30 3023 1 2980 2986
M  V30 3024 1 2987 2988
M  V30 3025 1 2987 2998
M  V30 3026 1 2988 2989
M  V30 3027 1 2988 2991
M  V30 3028 1 2988 2999
M  V30 3029 2 2989 2990
M  V30 3030 1 2989 3011
M  V30 3031 1 2991 2992
M  V30 3032 1 2991 3000
M  V30 3033 1 2991 3001
M  V30 3034 1 2992 2993
M  V30 3035 1 2992 3002
M  V30 3036 1 2992 3003
M  V30 3037 1 2993 2994
M  V30 3038 1 2993 3004
M  V30 3039 1 2993 3005
M  V30 3040 1 2994 2995
M  V30 3041 1 2994 3006
M  V30 3042 1 2995 2996
M  V30 3043 2 2995 2997
M  V30 3044 1 2996 3007
M  V30 3045 1 2996 3008
M  V30 3046 1 2997 3009
M  V30 3047 1 2997 3010
M  V30 3048 1 3011 3012
M  V30 3049 1 3011 3017
M  V30 3050 1 3012 3013
M  V30 3051 1 3012 3015
M  V30 3052 1 3012 3018
M  V30 3053 2 3013 3014
M  V30 3054 1 3013 3022
M  V30 3055 1 3015 3016
M  V30 3056 1 3015 3019
M  V30 3057 1 3015 3020
M  V30 3058 1 3016 3021
M  V30 3059 1 3022 3023
M  V30 3060 1 3022 3030
M  V30 3061 1 3023 3024
M  V30 3062 1 3023 3026
M  V30 3063 1 3023 3031
M  V30 3064 2 3024 3025
M  V30 3065 1 3024 3036
M  V30 3066 1 3026 3027
M  V30 3067 1 3026 3032
M  V30 3068 1 3026 3033
M  V30 3069 2 3027 3028
M  V30 3070 1 3027 3029
M  V30 3071 1 3029 3034
M  V30 3072 1 3029 3035
M  V30 3073 1 3036 3037
M  V30 3074 1 3036 3042
M  V30 3075 1 3037 3038
M  V30 3076 1 3037 3040
M  V30 3077 1 3037 3043
M  V30 3078 2 3038 3039
M  V30 3079 1 3038 3047
M  V30 3080 1 3040 3041
M  V30 3081 1 3040 3044
M  V30 3082 1 3040 3045
M  V30 3083 1 3041 3046
M  V30 3084 1 3047 3048
M  V30 3085 1 3047 3056
M  V30 3086 1 3048 3049
M  V30 3087 1 3048 3051
M  V30 3088 1 3048 3057
M  V30 3089 2 3049 3050
M  V30 3090 1 3049 3062
M  V30 3091 1 3051 3052
M  V30 3092 1 3051 3058
M  V30 3093 1 3051 3059
M  V30 3094 1 3052 3053
M  V30 3095 1 3052 3060
M  V30 3096 1 3052 3061
M  V30 3097 2 3053 3054
M  V30 3098 1 3053 3055
M  V30 3099 1 3062 3063
M  V30 3100 1 3062 3069
M  V30 3101 1 3063 3064
M  V30 3102 1 3063 3066
M  V30 3103 1 3063 3070
M  V30 3104 2 3064 3065
M  V30 3105 1 3064 3078
M  V30 3106 1 3066 3067
M  V30 3107 1 3066 3068
M  V30 3108 1 3066 3071
M  V30 3109 1 3067 3072
M  V30 3110 1 3067 3073
M  V30 3111 1 3067 3074
M  V30 3112 1 3068 3075
M  V30 3113 1 3068 3076
M  V30 3114 1 3068 3077
M  V30 3115 1 3078 3079
M  V30 3116 1 3078 3085
M  V30 3117 1 3079 3080
M  V30 3118 1 3079 3082
M  V30 3119 1 3079 3086
M  V30 3120 2 3080 3081
M  V30 3121 1 3080 3094
M  V30 3122 1 3082 3083
M  V30 3123 1 3082 3084
M  V30 3124 1 3082 3087
M  V30 3125 1 3083 3088
M  V30 3126 1 3083 3089
M  V30 3127 1 3083 3090
M  V30 3128 1 3084 3091
M  V30 3129 1 3084 3092
M  V30 3130 1 3084 3093
M  V30 3131 1 3094 3095
M  V30 3132 1 3094 3103
M  V30 3133 1 3095 3096
M  V30 3134 1 3095 3098
M  V30 3135 1 3095 3104
M  V30 3136 2 3096 3097
M  V30 3137 1 3096 3109
M  V30 3138 1 3098 3099
M  V30 3139 1 3098 3105
M  V30 3140 1 3098 3106
M  V30 3141 1 3099 3100
M  V30 3142 1 3099 3107
M  V30 3143 1 3099 3108
M  V30 3144 2 3100 3101
M  V30 3145 1 3100 3102
M  V30 3146 1 3109 3110
M  V30 3147 1 3109 3117
M  V30 3148 1 3110 3111
M  V30 3149 1 3110 3113
M  V30 3150 1 3110 3118
M  V30 3151 2 3111 3112
M  V30 3152 1 3111 3121
M  V30 3153 1 3113 3114
M  V30 3154 1 3113 3119
M  V30 3155 1 3113 3120
M  V30 3156 2 3114 3115
M  V30 3157 1 3114 3116
M  V30 3158 1 3121 3122
M  V30 3159 1 3121 3129
M  V30 3160 1 3122 3123
M  V30 3161 1 3122 3125
M  V30 3162 1 3122 3130
M  V30 3163 2 3123 3124
M  V30 3164 1 3123 3140
M  V30 3165 1 3125 3126
M  V30 3166 1 3125 3127
M  V30 3167 1 3125 3131
M  V30 3168 1 3126 3128
M  V30 3169 1 3126 3132
M  V30 3170 1 3126 3133
M  V30 3171 1 3127 3134
M  V30 3172 1 3127 3135
M  V30 3173 1 3127 3136
M  V30 3174 1 3128 3137
M  V30 3175 1 3128 3138
M  V30 3176 1 3128 3139
M  V30 3177 1 3140 3141
M  V30 3178 1 3140 3146
M  V30 3179 1 3141 3142
M  V30 3180 1 3141 3144
M  V30 3181 1 3141 3147
M  V30 3182 2 3142 3143
M  V30 3183 1 3142 3151
M  V30 3184 1 3144 3145
M  V30 3185 1 3144 3148
M  V30 3186 1 3144 3149
M  V30 3187 1 3145 3150
M  V30 3188 1 3151 3152
M  V30 3189 1 3151 3158
M  V30 3190 1 3152 3153
M  V30 3191 1 3152 3155
M  V30 3192 1 3152 3159
M  V30 3193 2 3153 3154
M  V30 3194 1 3153 3165
M  V30 3195 1 3155 3156
M  V30 3196 1 3155 3157
M  V30 3197 1 3155 3160
M  V30 3198 1 3156 3161
M  V30 3199 1 3157 3162
M  V30 3200 1 3157 3163
M  V30 3201 1 3157 3164
M  V30 3202 1 3165 3166
M  V30 3203 1 3165 3169
M  V30 3204 1 3166 3167
M  V30 3205 1 3166 3170
M  V30 3206 1 3166 3171
M  V30 3207 2 3167 3168
M  V30 3208 1 3167 3172
M  V30 3209 1 3172 3173
M  V30 3210 1 3172 3183
M  V30 3211 1 3173 3174
M  V30 3212 1 3173 3176
M  V30 3213 1 3173 3184
M  V30 3214 2 3174 3175
M  V30 3215 1 3174 3192
M  V30 3216 1 3176 3177
M  V30 3217 1 3176 3185
M  V30 3218 1 3176 3186
M  V30 3219 2 3177 3178
M  V30 3220 1 3177 3179
M  V30 3221 1 3178 3180
M  V30 3222 1 3178 3187
M  V30 3223 2 3179 3181
M  V30 3224 1 3179 3188
M  V30 3225 2 3180 3182
M  V30 3226 1 3180 3189
M  V30 3227 1 3181 3182
M  V30 3228 1 3181 3190
M  V30 3229 1 3182 3191
M  V30 3230 1 3192 3193
M  V30 3231 1 3192 3203
M  V30 3232 1 3193 3194
M  V30 3233 1 3193 3196
M  V30 3234 1 3193 3204
M  V30 3235 2 3194 3195
M  V30 3236 1 3194 3216
M  V30 3237 1 3196 3197
M  V30 3238 1 3196 3205
M  V30 3239 1 3196 3206
M  V30 3240 1 3197 3198
M  V30 3241 1 3197 3207
M  V30 3242 1 3197 3208
M  V30 3243 1 3198 3199
M  V30 3244 1 3198 3209
M  V30 3245 1 3198 3210
M  V30 3246 1 3199 3200
M  V30 3247 1 3199 3211
M  V30 3248 1 3200 3201
M  V30 3249 2 3200 3202
M  V30 3250 1 3201 3212
M  V30 3251 1 3201 3213
M  V30 3252 1 3202 3214
M  V30 3253 1 3202 3215
M  V30 3254 1 3216 3217
M  V30 3255 1 3216 3224
M  V30 3256 1 3217 3218
M  V30 3257 1 3217 3220
M  V30 3258 1 3217 3225
M  V30 3259 2 3218 3219
M  V30 3260 1 3218 3235
M  V30 3261 1 3220 3221
M  V30 3262 1 3220 3226
M  V30 3263 1 3220 3227
M  V30 3264 1 3221 3222
M  V30 3265 1 3221 3223
M  V30 3266 1 3221 3228
M  V30 3267 1 3222 3229
M  V30 3268 1 3222 3230
M  V30 3269 1 3222 3231
M  V30 3270 1 3223 3232
M  V30 3271 1 3223 3233
M  V30 3272 1 3223 3234
M  V30 3273 1 3235 3236
M  V30 3274 1 3235 3247
M  V30 3275 1 3236 3237
M  V30 3276 1 3236 3239
M  V30 3277 1 3236 3248
M  V30 3278 2 3237 3238
M  V30 3279 1 3237 3256
M  V30 3280 1 3239 3240
M  V30 3281 1 3239 3249
M  V30 3282 1 3239 3250
M  V30 3283 2 3240 3241
M  V30 3284 1 3240 3242
M  V30 3285 1 3241 3243
M  V30 3286 1 3241 3251
M  V30 3287 2 3242 3244
M  V30 3288 1 3242 3252
M  V30 3289 2 3243 3245
M  V30 3290 1 3243 3253
M  V30 3291 1 3244 3245
M  V30 3292 1 3244 3254
M  V30 3293 1 3245 3246
M  V30 3294 1 3246 3255
M  V30 3295 1 3256 3257
M  V30 3296 1 3256 3265
M  V30 3297 1 3257 3258
M  V30 3298 1 3257 3260
M  V30 3299 1 3257 3266
M  V30 3300 2 3258 3259
M  V30 3301 1 3258 3278
M  V30 3302 1 3260 3261
M  V30 3303 1 3260 3267
M  V30 3304 1 3260 3268
M  V30 3305 1 3261 3262
M  V30 3306 1 3261 3269
M  V30 3307 1 3261 3270
M  V30 3308 1 3262 3263
M  V30 3309 1 3262 3271
M  V30 3310 1 3262 3272
M  V30 3311 1 3263 3264
M  V30 3312 1 3263 3273
M  V30 3313 1 3263 3274
M  V30 3314 1 3264 3275
M  V30 3315 1 3264 3276
M  V30 3316 1 3264 3277
M  V30 3317 1 3278 3279
M  V30 3318 1 3278 3284
M  V30 3319 1 3279 3280
M  V30 3320 1 3279 3282
M  V30 3321 1 3279 3285
M  V30 3322 2 3280 3281
M  V30 3323 1 3280 3292
M  V30 3324 1 3282 3283
M  V30 3325 1 3282 3286
M  V30 3326 1 3282 3287
M  V30 3327 1 3283 3284
M  V30 3328 1 3283 3288
M  V30 3329 1 3283 3289
M  V30 3330 1 3284 3290
M  V30 3331 1 3284 3291
M  V30 3332 1 3292 3293
M  V30 3333 1 3292 3303
M  V30 3334 1 3293 3294
M  V30 3335 1 3293 3296
M  V30 3336 1 3293 3304
M  V30 3337 2 3294 3295
M  V30 3338 1 3294 3316
M  V30 3339 1 3296 3297
M  V30 3340 1 3296 3305
M  V30 3341 1 3296 3306
M  V30 3342 1 3297 3298
M  V30 3343 1 3297 3307
M  V30 3344 1 3297 3308
M  V30 3345 1 3298 3299
M  V30 3346 1 3298 3309
M  V30 3347 1 3298 3310
M  V30 3348 1 3299 3300
M  V30 3349 1 3299 3311
M  V30 3350 1 3300 3301
M  V30 3351 2 3300 3302
M  V30 3352 1 3301 3312
M  V30 3353 1 3301 3313
M  V30 3354 1 3302 3314
M  V30 3355 1 3302 3315
M  V30 3356 1 3316 3317
M  V30 3357 1 3316 3324
M  V30 3358 1 3317 3318
M  V30 3359 1 3317 3320
M  V30 3360 1 3317 3325
M  V30 3361 2 3318 3319
M  V30 3362 1 3318 3335
M  V30 3363 1 3320 3321
M  V30 3364 1 3320 3326
M  V30 3365 1 3320 3327
M  V30 3366 1 3321 3322
M  V30 3367 1 3321 3323
M  V30 3368 1 3321 3328
M  V30 3369 1 3322 3329
M  V30 3370 1 3322 3330
M  V30 3371 1 3322 3331
M  V30 3372 1 3323 3332
M  V30 3373 1 3323 3333
M  V30 3374 1 3323 3334
M  V30 3375 1 3335 3336
M  V30 3376 1 3335 3340
M  V30 3377 1 3336 3337
M  V30 3378 1 3336 3339
M  V30 3379 1 3336 3341
M  V30 3380 2 3337 3338
M  V30 3381 1 3337 3345
M  V30 3382 1 3339 3342
M  V30 3383 1 3339 3343
M  V30 3384 1 3339 3344
M  V30 3385 1 3345 3346
M  V30 3386 1 3345 3351
M  V30 3387 1 3346 3347
M  V30 3388 1 3346 3349
M  V30 3389 1 3346 3352
M  V30 3390 2 3347 3348
M  V30 3391 1 3347 3356
M  V30 3392 1 3349 3350
M  V30 3393 1 3349 3353
M  V30 3394 1 3349 3354
M  V30 3395 1 3350 3355
M  V30 3396 1 3356 3357
M  V30 3397 1 3356 3363
M  V30 3398 1 3357 3358
M  V30 3399 1 3357 3360
M  V30 3400 1 3357 3364
M  V30 3401 2 3358 3359
M  V30 3402 1 3358 3370
M  V30 3403 1 3360 3361
M  V30 3404 1 3360 3362
M  V30 3405 1 3360 3365
M  V30 3406 1 3361 3366
M  V30 3407 1 3362 3367
M  V30 3408 1 3362 3368
M  V30 3409 1 3362 3369
M  V30 3410 1 3370 3371
M  V30 3411 1 3370 3380
M  V30 3412 1 3371 3372
M  V30 3413 1 3371 3374
M  V30 3414 1 3371 3381
M  V30 3415 2 3372 3373
M  V30 3416 1 3372 3387
M  V30 3417 1 3374 3375
M  V30 3418 1 3374 3382
M  V30 3419 1 3374 3383
M  V30 3420 1 3375 3376
M  V30 3421 2 3375 3377
M  V30 3422 2 3376 3378
M  V30 3423 1 3377 3379
M  V30 3424 1 3377 3384
M  V30 3425 1 3378 3379
M  V30 3426 1 3378 3385
M  V30 3427 1 3379 3386
M  V30 3428 1 3387 3388
M  V30 3429 1 3387 3394
M  V30 3430 1 3388 3389
M  V30 3431 1 3388 3391
M  V30 3432 1 3388 3395
M  V30 3433 2 3389 3390
M  V30 3434 1 3389 3403
M  V30 3435 1 3391 3392
M  V30 3436 1 3391 3393
M  V30 3437 1 3391 3396
M  V30 3438 1 3392 3397
M  V30 3439 1 3392 3398
M  V30 3440 1 3392 3399
M  V30 3441 1 3393 3400
M  V30 3442 1 3393 3401
M  V30 3443 1 3393 3402
M  V30 3444 1 3403 3404
M  V30 3445 1 3403 3415
M  V30 3446 1 3404 3405
M  V30 3447 1 3404 3407
M  V30 3448 1 3404 3416
M  V30 3449 2 3405 3406
M  V30 3450 1 3405 3424
M  V30 3451 1 3407 3408
M  V30 3452 1 3407 3417
M  V30 3453 1 3407 3418
M  V30 3454 2 3408 3409
M  V30 3455 1 3408 3410
M  V30 3456 1 3409 3411
M  V30 3457 1 3409 3419
M  V30 3458 2 3410 3412
M  V30 3459 1 3410 3420
M  V30 3460 2 3411 3413
M  V30 3461 1 3411 3421
M  V30 3462 1 3412 3413
M  V30 3463 1 3412 3422
M  V30 3464 1 3413 3414
M  V30 3465 1 3414 3423
M  V30 3466 1 3424 3425
M  V30 3467 1 3424 3433
M  V30 3468 1 3425 3426
M  V30 3469 1 3425 3428
M  V30 3470 1 3425 3434
M  V30 3471 2 3426 3427
M  V30 3472 1 3426 3441
M  V30 3473 1 3428 3429
M  V30 3474 1 3428 3435
M  V30 3475 1 3428 3436
M  V30 3476 1 3429 3430
M  V30 3477 1 3429 3437
M  V30 3478 1 3429 3438
M  V30 3479 2 3430 3431
M  V30 3480 1 3430 3432
M  V30 3481 1 3432 3439
M  V30 3482 1 3432 3440
M  V30 3483 1 3441 3442
M  V30 3484 1 3441 3449
M  V30 3485 1 3442 3443
M  V30 3486 1 3442 3445
M  V30 3487 1 3442 3450
M  V30 3488 2 3443 3444
M  V30 3489 1 3443 3460
M  V30 3490 1 3445 3446
M  V30 3491 1 3445 3447
M  V30 3492 1 3445 3451
M  V30 3493 1 3446 3448
M  V30 3494 1 3446 3452
M  V30 3495 1 3446 3453
M  V30 3496 1 3447 3454
M  V30 3497 1 3447 3455
M  V30 3498 1 3447 3456
M  V30 3499 1 3448 3457
M  V30 3500 1 3448 3458
M  V30 3501 1 3448 3459
M  V30 3502 1 3460 3461
M  V30 3503 1 3460 3468
M  V30 3504 1 3461 3462
M  V30 3505 1 3461 3464
M  V30 3506 1 3461 3469
M  V30 3507 2 3462 3463
M  V30 3508 1 3462 3477
M  V30 3509 1 3464 3465
M  V30 3510 1 3464 3470
M  V30 3511 1 3464 3471
M  V30 3512 1 3465 3466
M  V30 3513 1 3465 3472
M  V30 3514 1 3465 3473
M  V30 3515 1 3466 3467
M  V30 3516 1 3467 3474
M  V30 3517 1 3467 3475
M  V30 3518 1 3467 3476
M  V30 3519 1 3477 3478
M  V30 3520 1 3477 3485
M  V30 3521 1 3478 3479
M  V30 3522 1 3478 3481
M  V30 3523 1 3478 3486
M  V30 3524 2 3479 3480
M  V30 3525 1 3479 3491
M  V30 3526 1 3481 3482
M  V30 3527 1 3481 3487
M  V30 3528 1 3481 3488
M  V30 3529 2 3482 3483
M  V30 3530 1 3482 3484
M  V30 3531 1 3484 3489
M  V30 3532 1 3484 3490
M  V30 3533 1 3491 3492
M  V30 3534 1 3491 3501
M  V30 3535 1 3492 3493
M  V30 3536 1 3492 3495
M  V30 3537 1 3492 3502
M  V30 3538 2 3493 3494
M  V30 3539 1 3493 3508
M  V30 3540 1 3495 3496
M  V30 3541 1 3495 3503
M  V30 3542 1 3495 3504
M  V30 3543 1 3496 3497
M  V30 3544 2 3496 3498
M  V30 3545 1 3497 3499
M  V30 3546 1 3497 3505
M  V30 3547 1 3498 3500
M  V30 3548 1 3498 3506
M  V30 3549 2 3499 3500
M  V30 3550 1 3499 3507
M  V30 3551 1 3508 3509
M  V30 3552 1 3508 3514
M  V30 3553 1 3509 3510
M  V30 3554 1 3509 3512
M  V30 3555 1 3509 3515
M  V30 3556 2 3510 3511
M  V30 3557 1 3510 3519
M  V30 3558 1 3512 3513
M  V30 3559 1 3512 3516
M  V30 3560 1 3512 3517
M  V30 3561 1 3513 3518
M  V30 3562 1 3519 3520
M  V30 3563 1 3519 3533
M  V30 3564 1 3520 3521
M  V30 3565 1 3520 3523
M  V30 3566 1 3520 3534
M  V30 3567 2 3521 3522
M  V30 3568 1 3521 3543
M  V30 3569 1 3523 3524
M  V30 3570 1 3523 3535
M  V30 3571 1 3523 3536
M  V30 3572 2 3524 3525
M  V30 3573 1 3524 3526
M  V30 3574 1 3525 3527
M  V30 3575 1 3525 3537
M  V30 3576 2 3526 3528
M  V30 3577 1 3526 3529
M  V30 3578 1 3527 3528
M  V30 3579 1 3527 3538
M  V30 3580 1 3528 3530
M  V30 3581 2 3529 3531
M  V30 3582 1 3529 3539
M  V30 3583 2 3530 3532
M  V30 3584 1 3530 3540
M  V30 3585 1 3531 3532
M  V30 3586 1 3531 3541
M  V30 3587 1 3532 3542
M  V30 3588 1 3543 3544
M  V30 3589 1 3543 3552
M  V30 3590 1 3544 3545
M  V30 3591 1 3544 3547
M  V30 3592 1 3544 3553
M  V30 3593 2 3545 3546
M  V30 3594 1 3545 3565
M  V30 3595 1 3547 3548
M  V30 3596 1 3547 3554
M  V30 3597 1 3547 3555
M  V30 3598 1 3548 3549
M  V30 3599 1 3548 3556
M  V30 3600 1 3548 3557
M  V30 3601 1 3549 3550
M  V30 3602 1 3549 3558
M  V30 3603 1 3549 3559
M  V30 3604 1 3550 3551
M  V30 3605 1 3550 3560
M  V30 3606 1 3550 3561
M  V30 3607 1 3551 3562
M  V30 3608 1 3551 3563
M  V30 3609 1 3551 3564
M  V30 3610 1 3565 3566
M  V30 3611 1 3565 3574
M  V30 3612 1 3566 3567
M  V30 3613 1 3566 3569
M  V30 3614 1 3566 3575
M  V30 3615 2 3567 3568
M  V30 3616 1 3567 3580
M  V30 3617 1 3569 3570
M  V30 3618 1 3569 3576
M  V30 3619 1 3569 3577
M  V30 3620 1 3570 3571
M  V30 3621 1 3570 3578
M  V30 3622 1 3570 3579
M  V30 3623 2 3571 3572
M  V30 3624 1 3571 3573
M  V30 3625 1 3580 3581
M  V30 3626 1 3580 3591
M  V30 3627 1 3581 3582
M  V30 3628 1 3581 3584
M  V30 3629 1 3581 3592
M  V30 3630 2 3582 3583
M  V30 3631 1 3582 3604
M  V30 3632 1 3584 3585
M  V30 3633 1 3584 3593
M  V30 3634 1 3584 3594
M  V30 3635 1 3585 3586
M  V30 3636 1 3585 3595
M  V30 3637 1 3585 3596
M  V30 3638 1 3586 3587
M  V30 3639 1 3586 3597
M  V30 3640 1 3586 3598
M  V30 3641 1 3587 3588
M  V30 3642 1 3587 3599
M  V30 3643 1 3588 3589
M  V30 3644 2 3588 3590
M  V30 3645 1 3589 3600
M  V30 3646 1 3589 3601
M  V30 3647 1 3590 3602
M  V30 3648 1 3590 3603
M  V30 3649 1 3604 3605
M  V30 3650 1 3604 3610
M  V30 3651 1 3605 3606
M  V30 3652 1 3605 3608
M  V30 3653 1 3605 3611
M  V30 3654 2 3606 3607
M  V30 3655 1 3606 3618
M  V30 3656 1 3608 3609
M  V30 3657 1 3608 3612
M  V30 3658 1 3608 3613
M  V30 3659 1 3609 3610
M  V30 3660 1 3609 3614
M  V30 3661 1 3609 3615
M  V30 3662 1 3610 3616
M  V30 3663 1 3610 3617
M  V30 3664 1 3618 3619
M  V30 3665 1 3618 3627
M  V30 3666 1 3619 3620
M  V30 3667 1 3619 3622
M  V30 3668 1 3619 3628
M  V30 3669 2 3620 3621
M  V30 3670 1 3620 3633
M  V30 3671 1 3622 3623
M  V30 3672 1 3622 3629
M  V30 3673 1 3622 3630
M  V30 3674 1 3623 3624
M  V30 3675 1 3623 3631
M  V30 3676 1 3623 3632
M  V30 3677 2 3624 3625
M  V30 3678 1 3624 3626
M  V30 3679 1 3633 3634
M  V30 3680 1 3633 3641
M  V30 3681 1 3634 3635
M  V30 3682 1 3634 3637
M  V30 3683 1 3634 3642
M  V30 3684 2 3635 3636
M  V30 3685 1 3635 3645
M  V30 3686 1 3637 3638
M  V30 3687 1 3637 3643
M  V30 3688 1 3637 3644
M  V30 3689 2 3638 3639
M  V30 3690 1 3638 3640
M  V30 3691 1 3645 3646
M  V30 3692 1 3645 3656
M  V30 3693 1 3646 3647
M  V30 3694 1 3646 3649
M  V30 3695 1 3646 3657
M  V30 3696 2 3647 3648
M  V30 3697 1 3647 3669
M  V30 3698 1 3649 3650
M  V30 3699 1 3649 3658
M  V30 3700 1 3649 3659
M  V30 3701 1 3650 3651
M  V30 3702 1 3650 3660
M  V30 3703 1 3650 3661
M  V30 3704 1 3651 3652
M  V30 3705 1 3651 3662
M  V30 3706 1 3651 3663
M  V30 3707 1 3652 3653
M  V30 3708 1 3652 3664
M  V30 3709 1 3653 3654
M  V30 3710 2 3653 3655
M  V30 3711 1 3654 3665
M  V30 3712 1 3654 3666
M  V30 3713 1 3655 3667
M  V30 3714 1 3655 3668
M  V30 3715 1 3669 3670
M  V30 3716 1 3669 3675
M  V30 3717 1 3670 3671
M  V30 3718 1 3670 3673
M  V30 3719 1 3670 3676
M  V30 3720 2 3671 3672
M  V30 3721 1 3671 3683
M  V30 3722 1 3673 3674
M  V30 3723 1 3673 3677
M  V30 3724 1 3673 3678
M  V30 3725 1 3674 3675
M  V30 3726 1 3674 3679
M  V30 3727 1 3674 3680
M  V30 3728 1 3675 3681
M  V30 3729 1 3675 3682
M  V30 3730 1 3683 3684
M  V30 3731 1 3683 3688
M  V30 3732 1 3684 3685
M  V30 3733 1 3684 3687
M  V30 3734 1 3684 3689
M  V30 3735 2 3685 3686
M  V30 3736 1 3685 3693
M  V30 3737 1 3687 3690
M  V30 3738 1 3687 3691
M  V30 3739 1 3687 3692
M  V30 3740 1 3693 3694
M  V30 3741 1 3693 3704
M  V30 3742 1 3694 3695
M  V30 3743 1 3694 3697
M  V30 3744 1 3694 3705
M  V30 3745 2 3695 3696
M  V30 3746 1 3695 3713
M  V30 3747 1 3697 3698
M  V30 3748 1 3697 3706
M  V30 3749 1 3697 3707
M  V30 3750 2 3698 3699
M  V30 3751 1 3698 3700
M  V30 3752 1 3699 3701
M  V30 3753 1 3699 3708
M  V30 3754 2 3700 3702
M  V30 3755 1 3700 3709
M  V30 3756 2 3701 3703
M  V30 3757 1 3701 3710
M  V30 3758 1 3702 3703
M  V30 3759 1 3702 3711
M  V30 3760 1 3703 3712
M  V30 3761 1 3713 3714
M  V30 3762 1 3713 3719
M  V30 3763 1 3714 3715
M  V30 3764 1 3714 3717
M  V30 3765 1 3714 3720
M  V30 3766 2 3715 3716
M  V30 3767 1 3715 3724
M  V30 3768 1 3717 3718
M  V30 3769 1 3717 3721
M  V30 3770 1 3717 3722
M  V30 3771 1 3718 3723
M  V30 3772 1 3724 3725
M  V30 3773 1 3724 3735
M  V30 3774 1 3725 3726
M  V30 3775 1 3725 3728
M  V30 3776 1 3725 3736
M  V30 3777 2 3726 3727
M  V30 3778 1 3726 3748
M  V30 3779 1 3728 3729
M  V30 3780 1 3728 3737
M  V30 3781 1 3728 3738
M  V30 3782 1 3729 3730
M  V30 3783 1 3729 3739
M  V30 3784 1 3729 3740
M  V30 3785 1 3730 3731
M  V30 3786 1 3730 3741
M  V30 3787 1 3730 3742
M  V30 3788 1 3731 3732
M  V30 3789 1 3731 3743
M  V30 3790 1 3732 3733
M  V30 3791 2 3732 3734
M  V30 3792 1 3733 3744
M  V30 3793 1 3733 3745
M  V30 3794 1 3734 3746
M  V30 3795 1 3734 3747
M  V30 3796 1 3748 3749
M  V30 3797 1 3748 3756
M  V30 3798 1 3749 3750
M  V30 3799 1 3749 3752
M  V30 3800 1 3749 3757
M  V30 3801 2 3750 3751
M  V30 3802 1 3750 3767
M  V30 3803 1 3752 3753
M  V30 3804 1 3752 3758
M  V30 3805 1 3752 3759
M  V30 3806 1 3753 3754
M  V30 3807 1 3753 3755
M  V30 3808 1 3753 3760
M  V30 3809 1 3754 3761
M  V30 3810 1 3754 3762
M  V30 3811 1 3754 3763
M  V30 3812 1 3755 3764
M  V30 3813 1 3755 3765
M  V30 3814 1 3755 3766
M  V30 3815 1 3767 3768
M  V30 3816 1 3767 3775
M  V30 3817 1 3768 3769
M  V30 3818 1 3768 3771
M  V30 3819 1 3768 3776
M  V30 3820 2 3769 3770
M  V30 3821 1 3769 3786
M  V30 3822 1 3771 3772
M  V30 3823 1 3771 3777
M  V30 3824 1 3771 3778
M  V30 3825 1 3772 3773
M  V30 3826 1 3772 3774
M  V30 3827 1 3772 3779
M  V30 3828 1 3773 3780
M  V30 3829 1 3773 3781
M  V30 3830 1 3773 3782
M  V30 3831 1 3774 3783
M  V30 3832 1 3774 3784
M  V30 3833 1 3774 3785
M  V30 3834 1 3786 3787
M  V30 3835 1 3786 3797
M  V30 3836 1 3787 3788
M  V30 3837 1 3787 3790
M  V30 3838 1 3787 3798
M  V30 3839 2 3788 3789
M  V30 3840 1 3788 3810
M  V30 3841 1 3790 3791
M  V30 3842 1 3790 3799
M  V30 3843 1 3790 3800
M  V30 3844 1 3791 3792
M  V30 3845 1 3791 3801
M  V30 3846 1 3791 3802
M  V30 3847 1 3792 3793
M  V30 3848 1 3792 3803
M  V30 3849 1 3792 3804
M  V30 3850 1 3793 3794
M  V30 3851 1 3793 3805
M  V30 3852 1 3794 3795
M  V30 3853 2 3794 3796
M  V30 3854 1 3795 3806
M  V30 3855 1 3795 3807
M  V30 3856 1 3796 3808
M  V30 3857 1 3796 3809
M  V30 3858 1 3810 3811
M  V30 3859 1 3810 3819
M  V30 3860 1 3811 3812
M  V30 3861 1 3811 3814
M  V30 3862 1 3811 3820
M  V30 3863 2 3812 3813
M  V30 3864 1 3812 3827
M  V30 3865 1 3814 3815
M  V30 3866 1 3814 3821
M  V30 3867 1 3814 3822
M  V30 3868 1 3815 3816
M  V30 3869 1 3815 3823
M  V30 3870 1 3815 3824
M  V30 3871 2 3816 3817
M  V30 3872 1 3816 3818
M  V30 3873 1 3818 3825
M  V30 3874 1 3818 3826
M  V30 3875 1 3827 3828
M  V30 3876 1 3827 3835
M  V30 3877 1 3828 3829
M  V30 3878 1 3828 3831
M  V30 3879 1 3828 3836
M  V30 3880 2 3829 3830
M  V30 3881 1 3829 3846
M  V30 3882 1 3831 3832
M  V30 3883 1 3831 3837
M  V30 3884 1 3831 3838
M  V30 3885 1 3832 3833
M  V30 3886 1 3832 3834
M  V30 3887 1 3832 3839
M  V30 3888 1 3833 3840
M  V30 3889 1 3833 3841
M  V30 3890 1 3833 3842
M  V30 3891 1 3834 3843
M  V30 3892 1 3834 3844
M  V30 3893 1 3834 3845
M  V30 3894 1 3846 3847
M  V30 3895 1 3846 3851
M  V30 3896 1 3847 3848
M  V30 3897 1 3847 3850
M  V30 3898 1 3847 3852
M  V30 3899 2 3848 3849
M  V30 3900 1 3848 3856
M  V30 3901 1 3850 3853
M  V30 3902 1 3850 3854
M  V30 3903 1 3850 3855
M  V30 3904 1 3856 3857
M  V30 3905 1 3856 3861
M  V30 3906 1 3857 3858
M  V30 3907 1 3857 3860
M  V30 3908 1 3857 3862
M  V30 3909 2 3858 3859
M  V30 3910 1 3858 3866
M  V30 3911 1 3860 3863
M  V30 3912 1 3860 3864
M  V30 3913 1 3860 3865
M  V30 3914 1 3866 3867
M  V30 3915 1 3866 3874
M  V30 3916 1 3867 3868
M  V30 3917 1 3867 3870
M  V30 3918 1 3867 3875
M  V30 3919 2 3868 3869
M  V30 3920 1 3868 3885
M  V30 3921 1 3870 3871
M  V30 3922 1 3870 3872
M  V30 3923 1 3870 3876
M  V30 3924 1 3871 3873
M  V30 3925 1 3871 3877
M  V30 3926 1 3871 3878
M  V30 3927 1 3872 3879
M  V30 3928 1 3872 3880
M  V30 3929 1 3872 3881
M  V30 3930 1 3873 3882
M  V30 3931 1 3873 3883
M  V30 3932 1 3873 3884
M  V30 3933 1 3885 3886
M  V30 3934 1 3885 3890
M  V30 3935 1 3886 3887
M  V30 3936 1 3886 3889
M  V30 3937 1 3886 3891
M  V30 3938 2 3887 3888
M  V30 3939 1 3887 3895
M  V30 3940 1 3889 3892
M  V30 3941 1 3889 3893
M  V30 3942 1 3889 3894
M  V30 3943 1 3895 3896
M  V30 3944 1 3895 3900
M  V30 3945 1 3896 3897
M  V30 3946 1 3896 3899
M  V30 3947 1 3896 3901
M  V30 3948 2 3897 3898
M  V30 3949 1 3897 3905
M  V30 3950 1 3899 3902
M  V30 3951 1 3899 3903
M  V30 3952 1 3899 3904
M  V30 3953 1 3905 3906
M  V30 3954 1 3905 3911
M  V30 3955 1 3906 3907
M  V30 3956 1 3906 3909
M  V30 3957 1 3906 3912
M  V30 3958 2 3907 3908
M  V30 3959 1 3907 3913
M  V30 3960 1 3909 3910
M  V30 3961 1 3909 3914
M  V30 3962 1 3909 3915
M  V30 3963 1 3910 3916
M  V30 3964 1 3917 3918
M  V30 3965 1 3917 3965
M  V30 3966 1 3917 3966
M  V30 3967 1 3917 3967
M  V30 3968 1 3918 3919
M  V30 3969 1 3918 3934
M  V30 3970 1 3918 3935
M  V30 3971 1 3919 3920
M  V30 3972 1 3919 3968
M  V30 3973 1 3919 3969
M  V30 3974 1 3920 3921
M  V30 3975 2 3920 3932
M  V30 3976 1 3921 3922
M  V30 3977 1 3921 3970
M  V30 3978 2 3922 3923
M  V30 3979 1 3923 3924
M  V30 3980 1 3923 3932
M  V30 3981 2 3924 3925
M  V30 3982 1 3924 3926
M  V30 3983 1 3926 3927
M  V30 3984 1 3926 3971
M  V30 3985 2 3927 3928
M  V30 3986 1 3927 3931
M  V30 3987 1 3928 3929
M  V30 3988 1 3928 3972
M  V30 3989 1 3929 3930
M  V30 3990 1 3929 3973
M  V30 3991 2 3930 3931
M  V30 3992 1 3931 3974
M  V30 3993 1 3932 3933
M  V30 3994 1 3933 3934
M  V30 3995 1 3933 3975
M  V30 3996 1 3933 3976
M  V30 3997 1 3934 3935
M  V30 3998 1 3934 3977
M  V30 3999 1 3935 3936
M  V30 4000 1 3935 3937
M  V30 4001 1 3938 3939
M  V30 4002 1 3938 3945
M  V30 4003 1 3938 3946
M  V30 4004 1 3939 3940
M  V30 4005 1 3939 3947
M  V30 4006 1 3939 3948
M  V30 4007 1 3940 3941
M  V30 4008 1 3940 3949
M  V30 4009 1 3940 3950
M  V30 4010 1 3941 3942
M  V30 4011 1 3941 3951
M  V30 4012 1 3942 3943
M  V30 4013 2 3942 3944
M  V30 4014 1 3943 3952
M  V30 4015 1 3943 3953
M  V30 4016 1 3944 3954
M  V30 4017 1 3944 3955
M  V30 4018 1 3956 3957
M  V30 4019 1 3956 3961
M  V30 4020 1 3956 3962
M  V30 4021 1 3957 3958
M  V30 4022 1 3957 3963
M  V30 4023 1 3957 3964
M  V30 4024 2 3958 3959
M  V30 4025 1 3958 3960
M  V30 END BOND
M  V30 END CTAB
M  END
> <s_m_entry_id>
48

> <s_m_entry_name>
4RFM_core.1

> <s_pdb_PDB_TITLE>
ITK KINASE DOMAIN IN COMPLEX WITH COMPOUND 1 N-{1-[(1,1-DIOXO-1-THIAN- 2-YL)(PHENYL)METHYL]-1H- PYRAZOL-4-YL}-5,5-DIFLUORO-5A-METHYL-1H,4H, 4AH,5H,5AH,6H-CYCLOPROPA[F]INDAZOLE-3-CARBOXAMIDE

> <s_pdb_PDB_ID>
4RFM

> <r_pdb_PDB_CRYST1_a>
40.006

> <r_pdb_PDB_CRYST1_b>
69.561

> <r_pdb_PDB_CRYST1_c>
47.347

> <r_pdb_PDB_CRYST1_alpha>
90

> <r_pdb_PDB_CRYST1_beta>
113.39

> <r_pdb_PDB_CRYST1_gamma>
90

> <s_pdb_PDB_CRYST1_Space_Group>
P 1 21 1

> <i_pdb_PDB_CRYST1_z>
2

> <s_pdb_PDB_CLASSIFICATION>
TRANSFERASE/INHIBITOR

> <s_pdb_PDB_DEPOSITION_DATE>
26-SEP-14

> <s_pdb_PDB_format_version>
3.30

> <r_pdb_PDB_R>
0.203

> <r_pdb_PDB_Rfree>
0.264

> <r_pdb_PDB_RESOLUTION>
2.1

> <s_pdb_PDB_EXPDTA>
X-RAY DIFFRACTION

> <r_pdb_PDB_EXPDTA_TEMPERATURE>
100

> <r_pdb_PDB_EXPDTA_PH>
8

> <s_m_Source_Path>
/home/dsoler

> <s_m_Source_File>
4RFM_core.pdb

> <i_m_Source_File_Index>
1

> <i_pdb_PDB_Model>
1

> <s_ppw_entry_id_backup>
47

> <b_ppw_prepared>
1

> <s_ppw_prepared_with_version>
2019-1

> <b_ppw_assigned_bond_orders>
1

> <b_ppw_added_hydrogens>
1

> <b_ppw_treated_metals>
1

> <b_ppw_created_disulfur>
1

> <b_ppw_deleted_far_waters>
1

> <s_ppw_het_states>
eJztVLtOAzEQ/BXLdQK3u/dMOipaRIlSnEIqjrsUR4Gi/Dtem2RsIJEQCBHIVZPROuOZHXljyc7MnfukoWpissXEKKwBmz3kDJAAGVAAc8ACsASEGkONoSZQE6gJ1ARqAjWBmkBNvJriV6PBI8FucJoQ+q8pUYBolNBECOGEXBJC78vILMRFSC6ExsgvREcxIdGR3E8UOBKIEhOlJyoQ3q1mzDEh0U29OYZ99uYE5iTbHWGsIWyAsIwkMcnfJKYw7CQl/E0dk13UTO7QxmoyrpVK1E7Sqv7+91YnqaqLJvqcAXs7tuPKrFd9243PYdo8LNvu8nHo5uZ6ejX092Y5PPXjzNDc3LgR6wtxrv63VZ9jIq7t4eonTf+w+mnT/3z16Vj1p7vRT9U9O9f9/7z0UVXR/3d1Z2zhQN0Ja/jBl56b80t/CtX/lS/9iVWfjlX/iy/9YvsCOU2H0A==

$$$$
